
These predictions were generated by FAST (v7.02.00d-bjj, 20-Feb-2013)-Compiled using DOUBLE precision on 18-Aug-2018 at 21:19:21.
The aerodynamic calculations were made by AeroDyn (v13.00.02a-bjj, 20-Feb-2013).

 NREL 5.0 MW Baseline Wind Turbine for Use in Offshore Analysis.

Time	TwstDefl1	IPDefl1	OoPDefl1	RootFxc1	Spn7MLyb1	RootMxb1	RootMyb1	Spn3MLxb1	Spn1MLxb1	Spn4MLyb1	Spn5MLxb1	Spn4MLxb1	Spn2MLxb1	Spn7MLxb1	Spn1MLyb1	Spn5MLyb1	Spn6MLyb1	Spn6MLxb1	Spn3MLyb1	Spn2MLyb1	GenPwr	RotTorq	RotPwr	GenTq	RotThrust
(s)	(deg)	(m)	(m)	(kN)	INVALID	(kN·m)	(kN·m)	(kN·m)	(kN·m)	INVALID	INVALID	INVALID	(kN·m)	INVALID	(kN·m)	INVALID	INVALID	INVALID	(kN·m)	(kN·m)	(kW)	(kN·m)	(kW)	(kN·m)	(kN)
  15.000	 0.000E+00	-7.326E-01	 4.268E+00	 2.348E+02	 0.000E+00	 1.449E+03	 8.369E+03	 2.154E-01	 3.514E+00	 0.000E+00	 0.000E+00	 0.000E+00	 1.438E+00	 0.000E+00	 8.964E+01	 0.000E+00	 0.000E+00	 0.000E+00	 4.104E+00	 3.228E+01	 5.005E+03	 4.142E+03	 5.296E+03	 4.277E+01	 6.919E+02
  15.013	 0.000E+00	-7.417E-01	 4.263E+00	 2.345E+02	 0.000E+00	 1.517E+03	 8.360E+03	 2.274E-01	 3.843E+00	 0.000E+00	 0.000E+00	 0.000E+00	 1.544E+00	 0.000E+00	 8.949E+01	 0.000E+00	 0.000E+00	 0.000E+00	 4.098E+00	 3.222E+01	 5.005E+03	 4.147E+03	 5.302E+03	 4.276E+01	 6.914E+02
  15.025	 0.000E+00	-7.510E-01	 4.258E+00	 2.343E+02	 0.000E+00	 1.586E+03	 8.352E+03	 2.403E-01	 4.191E+00	 0.000E+00	 0.000E+00	 0.000E+00	 1.657E+00	 0.000E+00	 8.937E+01	 0.000E+00	 0.000E+00	 0.000E+00	 4.094E+00	 3.218E+01	 5.005E+03	 4.152E+03	 5.308E+03	 4.276E+01	 6.909E+02
  15.038	 0.000E+00	-7.606E-01	 4.253E+00	 2.340E+02	 0.000E+00	 1.657E+03	 8.344E+03	 2.530E-01	 4.539E+00	 0.000E+00	 0.000E+00	 0.000E+00	 1.769E+00	 0.000E+00	 8.922E+01	 0.000E+00	 0.000E+00	 0.000E+00	 4.087E+00	 3.212E+01	 5.005E+03	 4.156E+03	 5.313E+03	 4.276E+01	 6.905E+02
  15.050	 0.000E+00	-7.704E-01	 4.248E+00	 2.338E+02	 0.000E+00	 1.729E+03	 8.337E+03	 2.665E-01	 4.904E+00	 0.000E+00	 0.000E+00	 0.000E+00	 1.888E+00	 0.000E+00	 8.909E+01	 0.000E+00	 0.000E+00	 0.000E+00	 4.083E+00	 3.208E+01	 5.005E+03	 4.160E+03	 5.318E+03	 4.276E+01	 6.901E+02
  15.062	 0.000E+00	-7.804E-01	 4.244E+00	 2.336E+02	 0.000E+00	 1.802E+03	 8.329E+03	 2.797E-01	 5.267E+00	 0.000E+00	 0.000E+00	 0.000E+00	 2.005E+00	 0.000E+00	 8.894E+01	 0.000E+00	 0.000E+00	 0.000E+00	 4.076E+00	 3.202E+01	 5.005E+03	 4.163E+03	 5.322E+03	 4.276E+01	 6.896E+02
  15.075	 0.000E+00	-7.905E-01	 4.239E+00	 2.334E+02	 0.000E+00	 1.876E+03	 8.323E+03	 2.937E-01	 5.645E+00	 0.000E+00	 0.000E+00	 0.000E+00	 2.128E+00	 0.000E+00	 8.881E+01	 0.000E+00	 0.000E+00	 0.000E+00	 4.071E+00	 3.198E+01	 5.005E+03	 4.166E+03	 5.325E+03	 4.276E+01	 6.893E+02
  15.088	 0.000E+00	-8.008E-01	 4.235E+00	 2.332E+02	 0.000E+00	 1.951E+03	 8.316E+03	 3.074E-01	 6.021E+00	 0.000E+00	 0.000E+00	 0.000E+00	 2.249E+00	 0.000E+00	 8.865E+01	 0.000E+00	 0.000E+00	 0.000E+00	 4.064E+00	 3.192E+01	 5.005E+03	 4.168E+03	 5.328E+03	 4.276E+01	 6.889E+02
  15.100	 0.000E+00	-8.112E-01	 4.230E+00	 2.330E+02	 0.000E+00	 2.026E+03	 8.311E+03	 3.218E-01	 6.411E+00	 0.000E+00	 0.000E+00	 0.000E+00	 2.376E+00	 0.000E+00	 8.852E+01	 0.000E+00	 0.000E+00	 0.000E+00	 4.059E+00	 3.187E+01	 5.005E+03	 4.169E+03	 5.329E+03	 4.276E+01	 6.886E+02
  15.113	 0.000E+00	-8.217E-01	 4.226E+00	 2.328E+02	 0.000E+00	 2.101E+03	 8.305E+03	 3.359E-01	 6.797E+00	 0.000E+00	 0.000E+00	 0.000E+00	 2.501E+00	 0.000E+00	 8.836E+01	 0.000E+00	 0.000E+00	 0.000E+00	 4.052E+00	 3.181E+01	 5.005E+03	 4.169E+03	 5.329E+03	 4.276E+01	 6.882E+02
  15.125	 0.000E+00	-8.323E-01	 4.222E+00	 2.327E+02	 0.000E+00	 2.177E+03	 8.301E+03	 3.507E-01	 7.196E+00	 0.000E+00	 0.000E+00	 0.000E+00	 2.631E+00	 0.000E+00	 8.823E+01	 0.000E+00	 0.000E+00	 0.000E+00	 4.047E+00	 3.177E+01	 5.005E+03	 4.168E+03	 5.328E+03	 4.276E+01	 6.879E+02
  15.138	 0.000E+00	-8.429E-01	 4.219E+00	 2.325E+02	 0.000E+00	 2.252E+03	 8.296E+03	 3.651E-01	 7.590E+00	 0.000E+00	 0.000E+00	 0.000E+00	 2.758E+00	 0.000E+00	 8.806E+01	 0.000E+00	 0.000E+00	 0.000E+00	 4.040E+00	 3.170E+01	 5.005E+03	 4.167E+03	 5.326E+03	 4.276E+01	 6.876E+02
  15.150	 0.000E+00	-8.536E-01	 4.215E+00	 2.324E+02	 0.000E+00	 2.327E+03	 8.292E+03	 3.800E-01	 7.995E+00	 0.000E+00	 0.000E+00	 0.000E+00	 2.890E+00	 0.000E+00	 8.794E+01	 0.000E+00	 0.000E+00	 0.000E+00	 4.035E+00	 3.166E+01	 5.005E+03	 4.165E+03	 5.323E+03	 4.276E+01	 6.874E+02
  15.163	 0.000E+00	-8.642E-01	 4.212E+00	 2.323E+02	 0.000E+00	 2.402E+03	 8.289E+03	 3.946E-01	 8.394E+00	 0.000E+00	 0.000E+00	 0.000E+00	 3.019E+00	 0.000E+00	 8.777E+01	 0.000E+00	 0.000E+00	 0.000E+00	 4.027E+00	 3.159E+01	 5.005E+03	 4.161E+03	 5.319E+03	 4.275E+01	 6.871E+02
  15.175	 0.000E+00	-8.748E-01	 4.209E+00	 2.322E+02	 0.000E+00	 2.476E+03	 8.286E+03	 4.096E-01	 8.801E+00	 0.000E+00	 0.000E+00	 0.000E+00	 3.152E+00	 0.000E+00	 8.764E+01	 0.000E+00	 0.000E+00	 0.000E+00	 4.022E+00	 3.155E+01	 5.005E+03	 4.158E+03	 5.314E+03	 4.275E+01	 6.869E+02
  15.188	 0.000E+00	-8.853E-01	 4.206E+00	 2.321E+02	 0.000E+00	 2.549E+03	 8.283E+03	 4.241E-01	 9.199E+00	 0.000E+00	 0.000E+00	 0.000E+00	 3.280E+00	 0.000E+00	 8.747E+01	 0.000E+00	 0.000E+00	 0.000E+00	 4.015E+00	 3.148E+01	 5.005E+03	 4.153E+03	 5.308E+03	 4.275E+01	 6.867E+02
  15.200	 0.000E+00	-8.957E-01	 4.203E+00	 2.321E+02	 0.000E+00	 2.621E+03	 8.281E+03	 4.390E-01	 9.601E+00	 0.000E+00	 0.000E+00	 0.000E+00	 3.412E+00	 0.000E+00	 8.735E+01	 0.000E+00	 0.000E+00	 0.000E+00	 4.010E+00	 3.144E+01	 5.005E+03	 4.148E+03	 5.301E+03	 4.275E+01	 6.866E+02
  15.213	 0.000E+00	-9.060E-01	 4.200E+00	 2.320E+02	 0.000E+00	 2.692E+03	 8.279E+03	 4.532E-01	 9.991E+00	 0.000E+00	 0.000E+00	 0.000E+00	 3.538E+00	 0.000E+00	 8.718E+01	 0.000E+00	 0.000E+00	 0.000E+00	 4.002E+00	 3.137E+01	 5.005E+03	 4.142E+03	 5.294E+03	 4.275E+01	 6.864E+02
  15.225	 0.000E+00	-9.161E-01	 4.198E+00	 2.320E+02	 0.000E+00	 2.761E+03	 8.277E+03	 4.676E-01	 1.038E+01	 0.000E+00	 0.000E+00	 0.000E+00	 3.665E+00	 0.000E+00	 8.707E+01	 0.000E+00	 0.000E+00	 0.000E+00	 3.997E+00	 3.133E+01	 5.005E+03	 4.136E+03	 5.286E+03	 4.275E+01	 6.863E+02
  15.238	 0.000E+00	-9.260E-01	 4.196E+00	 2.319E+02	 0.000E+00	 2.829E+03	 8.276E+03	 4.812E-01	 1.075E+01	 0.000E+00	 0.000E+00	 0.000E+00	 3.786E+00	 0.000E+00	 8.690E+01	 0.000E+00	 0.000E+00	 0.000E+00	 3.990E+00	 3.126E+01	 5.005E+03	 4.130E+03	 5.277E+03	 4.275E+01	 6.862E+02
  15.250	 0.000E+00	-9.357E-01	 4.193E+00	 2.319E+02	 0.000E+00	 2.896E+03	 8.276E+03	 4.948E-01	 1.112E+01	 0.000E+00	 0.000E+00	 0.000E+00	 3.906E+00	 0.000E+00	 8.680E+01	 0.000E+00	 0.000E+00	 0.000E+00	 3.985E+00	 3.123E+01	 5.004E+03	 4.123E+03	 5.268E+03	 4.275E+01	 6.861E+02
  15.263	 0.000E+00	-9.451E-01	 4.192E+00	 2.319E+02	 0.000E+00	 2.960E+03	 8.275E+03	 5.076E-01	 1.147E+01	 0.000E+00	 0.000E+00	 0.000E+00	 4.019E+00	 0.000E+00	 8.665E+01	 0.000E+00	 0.000E+00	 0.000E+00	 3.978E+00	 3.116E+01	 5.004E+03	 4.116E+03	 5.259E+03	 4.275E+01	 6.860E+02
  15.275	 0.000E+00	-9.542E-01	 4.190E+00	 2.319E+02	 0.000E+00	 3.023E+03	 8.275E+03	 5.201E-01	 1.181E+01	 0.000E+00	 0.000E+00	 0.000E+00	 4.129E+00	 0.000E+00	 8.656E+01	 0.000E+00	 0.000E+00	 0.000E+00	 3.974E+00	 3.113E+01	 5.004E+03	 4.109E+03	 5.250E+03	 4.275E+01	 6.861E+02
  15.288	 0.000E+00	-9.630E-01	 4.188E+00	 2.319E+02	 0.000E+00	 3.084E+03	 8.275E+03	 5.316E-01	 1.212E+01	 0.000E+00	 0.000E+00	 0.000E+00	 4.231E+00	 0.000E+00	 8.642E+01	 0.000E+00	 0.000E+00	 0.000E+00	 3.968E+00	 3.108E+01	 5.003E+03	 4.102E+03	 5.241E+03	 4.275E+01	 6.860E+02
  15.300	 0.000E+00	-9.714E-01	 4.187E+00	 2.320E+02	 0.000E+00	 3.143E+03	 8.276E+03	 5.427E-01	 1.242E+01	 0.000E+00	 0.000E+00	 0.000E+00	 4.329E+00	 0.000E+00	 8.634E+01	 0.000E+00	 0.000E+00	 0.000E+00	 3.964E+00	 3.105E+01	 5.003E+03	 4.095E+03	 5.231E+03	 4.275E+01	 6.861E+02
  15.312	 0.000E+00	-9.795E-01	 4.186E+00	 2.320E+02	 0.000E+00	 3.199E+03	 8.277E+03	 5.528E-01	 1.270E+01	 0.000E+00	 0.000E+00	 0.000E+00	 4.418E+00	 0.000E+00	 8.622E+01	 0.000E+00	 0.000E+00	 0.000E+00	 3.959E+00	 3.100E+01	 5.002E+03	 4.089E+03	 5.223E+03	 4.275E+01	 6.861E+02
  15.325	 0.000E+00	-9.871E-01	 4.185E+00	 2.321E+02	 0.000E+00	 3.253E+03	 8.278E+03	 5.623E-01	 1.296E+01	 0.000E+00	 0.000E+00	 0.000E+00	 4.501E+00	 0.000E+00	 8.615E+01	 0.000E+00	 0.000E+00	 0.000E+00	 3.956E+00	 3.097E+01	 5.001E+03	 4.083E+03	 5.214E+03	 4.275E+01	 6.862E+02
  15.338	 0.000E+00	-9.944E-01	 4.184E+00	 2.322E+02	 0.000E+00	 3.305E+03	 8.279E+03	 5.709E-01	 1.319E+01	 0.000E+00	 0.000E+00	 0.000E+00	 4.577E+00	 0.000E+00	 8.605E+01	 0.000E+00	 0.000E+00	 0.000E+00	 3.951E+00	 3.093E+01	 5.001E+03	 4.077E+03	 5.207E+03	 4.275E+01	 6.862E+02
  15.350	 0.000E+00	-1.001E+00	 4.183E+00	 2.323E+02	 0.000E+00	 3.355E+03	 8.282E+03	 5.787E-01	 1.340E+01	 0.000E+00	 0.000E+00	 0.000E+00	 4.645E+00	 0.000E+00	 8.600E+01	 0.000E+00	 0.000E+00	 0.000E+00	 3.948E+00	 3.091E+01	 5.000E+03	 4.072E+03	 5.199E+03	 4.275E+01	 6.864E+02
  15.363	 0.000E+00	-1.008E+00	 4.183E+00	 2.324E+02	 0.000E+00	 3.402E+03	 8.283E+03	 5.857E-01	 1.359E+01	 0.000E+00	 0.000E+00	 0.000E+00	 4.706E+00	 0.000E+00	 8.591E+01	 0.000E+00	 0.000E+00	 0.000E+00	 3.944E+00	 3.087E+01	 4.999E+03	 4.067E+03	 5.193E+03	 4.275E+01	 6.864E+02
  15.375	 0.000E+00	-1.014E+00	 4.182E+00	 2.325E+02	 0.000E+00	 3.446E+03	 8.286E+03	 5.918E-01	 1.376E+01	 0.000E+00	 0.000E+00	 0.000E+00	 4.759E+00	 0.000E+00	 8.587E+01	 0.000E+00	 0.000E+00	 0.000E+00	 3.942E+00	 3.086E+01	 4.998E+03	 4.063E+03	 5.187E+03	 4.275E+01	 6.866E+02
  15.388	 0.000E+00	-1.019E+00	 4.182E+00	 2.326E+02	 0.000E+00	 3.488E+03	 8.288E+03	 5.972E-01	 1.390E+01	 0.000E+00	 0.000E+00	 0.000E+00	 4.805E+00	 0.000E+00	 8.580E+01	 0.000E+00	 0.000E+00	 0.000E+00	 3.939E+00	 3.083E+01	 4.998E+03	 4.060E+03	 5.182E+03	 4.275E+01	 6.867E+02
  15.400	 0.000E+00	-1.025E+00	 4.182E+00	 2.327E+02	 0.000E+00	 3.528E+03	 8.292E+03	 6.017E-01	 1.402E+01	 0.000E+00	 0.000E+00	 0.000E+00	 4.844E+00	 0.000E+00	 8.577E+01	 0.000E+00	 0.000E+00	 0.000E+00	 3.938E+00	 3.082E+01	 4.997E+03	 4.057E+03	 5.178E+03	 4.275E+01	 6.869E+02
  15.413	 0.000E+00	-1.029E+00	 4.182E+00	 2.329E+02	 0.000E+00	 3.565E+03	 8.295E+03	 6.056E-01	 1.413E+01	 0.000E+00	 0.000E+00	 0.000E+00	 4.877E+00	 0.000E+00	 8.571E+01	 0.000E+00	 0.000E+00	 0.000E+00	 3.935E+00	 3.079E+01	 4.996E+03	 4.055E+03	 5.175E+03	 4.275E+01	 6.871E+02
  15.425	 0.000E+00	-1.034E+00	 4.182E+00	 2.330E+02	 0.000E+00	 3.599E+03	 8.298E+03	 6.087E-01	 1.421E+01	 0.000E+00	 0.000E+00	 0.000E+00	 4.903E+00	 0.000E+00	 8.569E+01	 0.000E+00	 0.000E+00	 0.000E+00	 3.934E+00	 3.079E+01	 4.995E+03	 4.054E+03	 5.173E+03	 4.275E+01	 6.873E+02
  15.438	 0.000E+00	-1.038E+00	 4.182E+00	 2.332E+02	 0.000E+00	 3.631E+03	 8.302E+03	 6.112E-01	 1.428E+01	 0.000E+00	 0.000E+00	 0.000E+00	 4.923E+00	 0.000E+00	 8.565E+01	 0.000E+00	 0.000E+00	 0.000E+00	 3.932E+00	 3.077E+01	 4.994E+03	 4.054E+03	 5.172E+03	 4.275E+01	 6.874E+02
  15.450	 0.000E+00	-1.041E+00	 4.183E+00	 2.334E+02	 0.000E+00	 3.661E+03	 8.306E+03	 6.130E-01	 1.432E+01	 0.000E+00	 0.000E+00	 0.000E+00	 4.937E+00	 0.000E+00	 8.563E+01	 0.000E+00	 0.000E+00	 0.000E+00	 3.932E+00	 3.076E+01	 4.994E+03	 4.054E+03	 5.172E+03	 4.275E+01	 6.877E+02
  15.463	 0.000E+00	-1.044E+00	 4.183E+00	 2.336E+02	 0.000E+00	 3.688E+03	 8.310E+03	 6.143E-01	 1.436E+01	 0.000E+00	 0.000E+00	 0.000E+00	 4.947E+00	 0.000E+00	 8.560E+01	 0.000E+00	 0.000E+00	 0.000E+00	 3.930E+00	 3.075E+01	 4.993E+03	 4.055E+03	 5.173E+03	 4.275E+01	 6.879E+02
  15.475	 0.000E+00	-1.047E+00	 4.184E+00	 2.338E+02	 0.000E+00	 3.713E+03	 8.314E+03	 6.149E-01	 1.437E+01	 0.000E+00	 0.000E+00	 0.000E+00	 4.951E+00	 0.000E+00	 8.560E+01	 0.000E+00	 0.000E+00	 0.000E+00	 3.930E+00	 3.075E+01	 4.992E+03	 4.057E+03	 5.174E+03	 4.275E+01	 6.881E+02
  15.488	 0.000E+00	-1.050E+00	 4.185E+00	 2.340E+02	 0.000E+00	 3.735E+03	 8.318E+03	 6.152E-01	 1.437E+01	 0.000E+00	 0.000E+00	 0.000E+00	 4.952E+00	 0.000E+00	 8.557E+01	 0.000E+00	 0.000E+00	 0.000E+00	 3.929E+00	 3.074E+01	 4.991E+03	 4.060E+03	 5.177E+03	 4.275E+01	 6.884E+02
  15.500	 0.000E+00	-1.052E+00	 4.185E+00	 2.342E+02	 0.000E+00	 3.756E+03	 8.323E+03	 6.148E-01	 1.436E+01	 0.000E+00	 0.000E+00	 0.000E+00	 4.946E+00	 0.000E+00	 8.558E+01	 0.000E+00	 0.000E+00	 0.000E+00	 3.930E+00	 3.074E+01	 4.991E+03	 4.063E+03	 5.181E+03	 4.275E+01	 6.887E+02
  15.513	 0.000E+00	-1.054E+00	 4.186E+00	 2.344E+02	 0.000E+00	 3.774E+03	 8.328E+03	 6.142E-01	 1.434E+01	 0.000E+00	 0.000E+00	 0.000E+00	 4.939E+00	 0.000E+00	 8.556E+01	 0.000E+00	 0.000E+00	 0.000E+00	 3.929E+00	 3.074E+01	 4.990E+03	 4.067E+03	 5.185E+03	 4.276E+01	 6.889E+02
  15.525	 0.000E+00	-1.055E+00	 4.187E+00	 2.347E+02	 0.000E+00	 3.791E+03	 8.333E+03	 6.130E-01	 1.431E+01	 0.000E+00	 0.000E+00	 0.000E+00	 4.926E+00	 0.000E+00	 8.557E+01	 0.000E+00	 0.000E+00	 0.000E+00	 3.930E+00	 3.074E+01	 4.990E+03	 4.071E+03	 5.190E+03	 4.276E+01	 6.892E+02
  15.538	 0.000E+00	-1.056E+00	 4.188E+00	 2.349E+02	 0.000E+00	 3.806E+03	 8.338E+03	 6.116E-01	 1.426E+01	 0.000E+00	 0.000E+00	 0.000E+00	 4.912E+00	 0.000E+00	 8.557E+01	 0.000E+00	 0.000E+00	 0.000E+00	 3.930E+00	 3.074E+01	 4.989E+03	 4.076E+03	 5.195E+03	 4.276E+01	 6.895E+02
  15.550	 0.000E+00	-1.057E+00	 4.189E+00	 2.351E+02	 0.000E+00	 3.819E+03	 8.343E+03	 6.097E-01	 1.421E+01	 0.000E+00	 0.000E+00	 0.000E+00	 4.893E+00	 0.000E+00	 8.558E+01	 0.000E+00	 0.000E+00	 0.000E+00	 3.931E+00	 3.074E+01	 4.989E+03	 4.081E+03	 5.202E+03	 4.276E+01	 6.899E+02
  15.562	 0.000E+00	-1.058E+00	 4.191E+00	 2.354E+02	 0.000E+00	 3.830E+03	 8.348E+03	 6.076E-01	 1.415E+01	 0.000E+00	 0.000E+00	 0.000E+00	 4.872E+00	 0.000E+00	 8.559E+01	 0.000E+00	 0.000E+00	 0.000E+00	 3.932E+00	 3.074E+01	 4.988E+03	 4.087E+03	 5.208E+03	 4.276E+01	 6.902E+02
  15.575	 0.000E+00	-1.059E+00	 4.192E+00	 2.356E+02	 0.000E+00	 3.840E+03	 8.353E+03	 6.050E-01	 1.407E+01	 0.000E+00	 0.000E+00	 0.000E+00	 4.847E+00	 0.000E+00	 8.561E+01	 0.000E+00	 0.000E+00	 0.000E+00	 3.934E+00	 3.075E+01	 4.988E+03	 4.092E+03	 5.214E+03	 4.276E+01	 6.906E+02
  15.588	 0.000E+00	-1.059E+00	 4.193E+00	 2.359E+02	 0.000E+00	 3.848E+03	 8.359E+03	 6.023E-01	 1.399E+01	 0.000E+00	 0.000E+00	 0.000E+00	 4.821E+00	 0.000E+00	 8.563E+01	 0.000E+00	 0.000E+00	 0.000E+00	 3.935E+00	 3.076E+01	 4.988E+03	 4.098E+03	 5.221E+03	 4.277E+01	 6.910E+02
  15.600	 0.000E+00	-1.059E+00	 4.195E+00	 2.361E+02	 0.000E+00	 3.855E+03	 8.364E+03	 5.991E-01	 1.390E+01	 0.000E+00	 0.000E+00	 0.000E+00	 4.790E+00	 0.000E+00	 8.566E+01	 0.000E+00	 0.000E+00	 0.000E+00	 3.937E+00	 3.077E+01	 4.987E+03	 4.103E+03	 5.227E+03	 4.277E+01	 6.914E+02
  15.613	 0.000E+00	-1.059E+00	 4.196E+00	 2.364E+02	 0.000E+00	 3.862E+03	 8.370E+03	 5.959E-01	 1.381E+01	 0.000E+00	 0.000E+00	 0.000E+00	 4.759E+00	 0.000E+00	 8.569E+01	 0.000E+00	 0.000E+00	 0.000E+00	 3.939E+00	 3.078E+01	 4.987E+03	 4.109E+03	 5.234E+03	 4.277E+01	 6.918E+02
  15.625	 0.000E+00	-1.059E+00	 4.198E+00	 2.367E+02	 0.000E+00	 3.867E+03	 8.376E+03	 5.922E-01	 1.371E+01	 0.000E+00	 0.000E+00	 0.000E+00	 4.724E+00	 0.000E+00	 8.572E+01	 0.000E+00	 0.000E+00	 0.000E+00	 3.941E+00	 3.080E+01	 4.987E+03	 4.114E+03	 5.240E+03	 4.277E+01	 6.922E+02
  15.638	 0.000E+00	-1.059E+00	 4.199E+00	 2.369E+02	 0.000E+00	 3.871E+03	 8.381E+03	 5.885E-01	 1.360E+01	 0.000E+00	 0.000E+00	 0.000E+00	 4.689E+00	 0.000E+00	 8.576E+01	 0.000E+00	 0.000E+00	 0.000E+00	 3.944E+00	 3.081E+01	 4.987E+03	 4.118E+03	 5.245E+03	 4.277E+01	 6.927E+02
  15.650	 0.000E+00	-1.058E+00	 4.201E+00	 2.372E+02	 0.000E+00	 3.875E+03	 8.387E+03	 5.845E-01	 1.349E+01	 0.000E+00	 0.000E+00	 0.000E+00	 4.650E+00	 0.000E+00	 8.580E+01	 0.000E+00	 0.000E+00	 0.000E+00	 3.946E+00	 3.083E+01	 4.987E+03	 4.123E+03	 5.250E+03	 4.278E+01	 6.932E+02
  15.663	 0.000E+00	-1.058E+00	 4.203E+00	 2.375E+02	 0.000E+00	 3.879E+03	 8.393E+03	 5.805E-01	 1.337E+01	 0.000E+00	 0.000E+00	 0.000E+00	 4.612E+00	 0.000E+00	 8.585E+01	 0.000E+00	 0.000E+00	 0.000E+00	 3.949E+00	 3.085E+01	 4.987E+03	 4.126E+03	 5.254E+03	 4.278E+01	 6.936E+02
  15.675	 0.000E+00	-1.057E+00	 4.205E+00	 2.378E+02	 0.000E+00	 3.882E+03	 8.399E+03	 5.763E-01	 1.325E+01	 0.000E+00	 0.000E+00	 0.000E+00	 4.572E+00	 0.000E+00	 8.590E+01	 0.000E+00	 0.000E+00	 0.000E+00	 3.952E+00	 3.087E+01	 4.987E+03	 4.129E+03	 5.258E+03	 4.278E+01	 6.941E+02
  15.688	 0.000E+00	-1.057E+00	 4.207E+00	 2.381E+02	 0.000E+00	 3.885E+03	 8.405E+03	 5.722E-01	 1.313E+01	 0.000E+00	 0.000E+00	 0.000E+00	 4.533E+00	 0.000E+00	 8.595E+01	 0.000E+00	 0.000E+00	 0.000E+00	 3.956E+00	 3.089E+01	 4.987E+03	 4.132E+03	 5.261E+03	 4.278E+01	 6.946E+02
  15.700	 0.000E+00	-1.056E+00	 4.209E+00	 2.383E+02	 0.000E+00	 3.888E+03	 8.411E+03	 5.679E-01	 1.301E+01	 0.000E+00	 0.000E+00	 0.000E+00	 4.492E+00	 0.000E+00	 8.601E+01	 0.000E+00	 0.000E+00	 0.000E+00	 3.959E+00	 3.091E+01	 4.987E+03	 4.134E+03	 5.263E+03	 4.279E+01	 6.952E+02
  15.713	 0.000E+00	-1.056E+00	 4.211E+00	 2.386E+02	 0.000E+00	 3.891E+03	 8.417E+03	 5.639E-01	 1.289E+01	 0.000E+00	 0.000E+00	 0.000E+00	 4.454E+00	 0.000E+00	 8.607E+01	 0.000E+00	 0.000E+00	 0.000E+00	 3.963E+00	 3.093E+01	 4.987E+03	 4.135E+03	 5.264E+03	 4.279E+01	 6.957E+02
  15.725	 0.000E+00	-1.056E+00	 4.213E+00	 2.389E+02	 0.000E+00	 3.894E+03	 8.424E+03	 5.598E-01	 1.278E+01	 0.000E+00	 0.000E+00	 0.000E+00	 4.415E+00	 0.000E+00	 8.612E+01	 0.000E+00	 0.000E+00	 0.000E+00	 3.967E+00	 3.095E+01	 4.987E+03	 4.136E+03	 5.264E+03	 4.279E+01	 6.963E+02
  15.738	 0.000E+00	-1.055E+00	 4.215E+00	 2.392E+02	 0.000E+00	 3.898E+03	 8.430E+03	 5.562E-01	 1.267E+01	 0.000E+00	 0.000E+00	 0.000E+00	 4.379E+00	 0.000E+00	 8.619E+01	 0.000E+00	 0.000E+00	 0.000E+00	 3.971E+00	 3.098E+01	 4.987E+03	 4.136E+03	 5.264E+03	 4.279E+01	 6.968E+02
  15.750	 0.000E+00	-1.055E+00	 4.217E+00	 2.395E+02	 0.000E+00	 3.903E+03	 8.436E+03	 5.527E-01	 1.257E+01	 0.000E+00	 0.000E+00	 0.000E+00	 4.345E+00	 0.000E+00	 8.625E+01	 0.000E+00	 0.000E+00	 0.000E+00	 3.975E+00	 3.100E+01	 4.987E+03	 4.135E+03	 5.262E+03	 4.279E+01	 6.974E+02
  15.763	 0.000E+00	-1.055E+00	 4.219E+00	 2.398E+02	 0.000E+00	 3.908E+03	 8.443E+03	 5.497E-01	 1.248E+01	 0.000E+00	 0.000E+00	 0.000E+00	 4.316E+00	 0.000E+00	 8.631E+01	 0.000E+00	 0.000E+00	 0.000E+00	 3.979E+00	 3.103E+01	 4.988E+03	 4.133E+03	 5.260E+03	 4.280E+01	 6.979E+02
  15.775	 0.000E+00	-1.055E+00	 4.221E+00	 2.401E+02	 0.000E+00	 3.914E+03	 8.450E+03	 5.469E-01	 1.240E+01	 0.000E+00	 0.000E+00	 0.000E+00	 4.288E+00	 0.000E+00	 8.637E+01	 0.000E+00	 0.000E+00	 0.000E+00	 3.983E+00	 3.105E+01	 4.988E+03	 4.132E+03	 5.257E+03	 4.280E+01	 6.985E+02
  15.788	 0.000E+00	-1.056E+00	 4.224E+00	 2.404E+02	 0.000E+00	 3.921E+03	 8.456E+03	 5.449E-01	 1.233E+01	 0.000E+00	 0.000E+00	 0.000E+00	 4.268E+00	 0.000E+00	 8.643E+01	 0.000E+00	 0.000E+00	 0.000E+00	 3.987E+00	 3.108E+01	 4.988E+03	 4.129E+03	 5.254E+03	 4.280E+01	 6.991E+02
  15.800	 0.000E+00	-1.057E+00	 4.226E+00	 2.407E+02	 0.000E+00	 3.929E+03	 8.463E+03	 5.433E-01	 1.228E+01	 0.000E+00	 0.000E+00	 0.000E+00	 4.250E+00	 0.000E+00	 8.649E+01	 0.000E+00	 0.000E+00	 0.000E+00	 3.991E+00	 3.110E+01	 4.988E+03	 4.126E+03	 5.250E+03	 4.280E+01	 6.997E+02
  15.812	 0.000E+00	-1.057E+00	 4.229E+00	 2.410E+02	 0.000E+00	 3.938E+03	 8.470E+03	 5.425E-01	 1.225E+01	 0.000E+00	 0.000E+00	 0.000E+00	 4.241E+00	 0.000E+00	 8.655E+01	 0.000E+00	 0.000E+00	 0.000E+00	 3.996E+00	 3.113E+01	 4.988E+03	 4.123E+03	 5.245E+03	 4.280E+01	 7.003E+02
  15.825	 0.000E+00	-1.059E+00	 4.231E+00	 2.412E+02	 0.000E+00	 3.948E+03	 8.477E+03	 5.422E-01	 1.224E+01	 0.000E+00	 0.000E+00	 0.000E+00	 4.235E+00	 0.000E+00	 8.660E+01	 0.000E+00	 0.000E+00	 0.000E+00	 3.999E+00	 3.115E+01	 4.988E+03	 4.119E+03	 5.240E+03	 4.281E+01	 7.009E+02
  15.838	 0.000E+00	-1.060E+00	 4.234E+00	 2.415E+02	 0.000E+00	 3.959E+03	 8.484E+03	 5.428E-01	 1.225E+01	 0.000E+00	 0.000E+00	 0.000E+00	 4.239E+00	 0.000E+00	 8.666E+01	 0.000E+00	 0.000E+00	 0.000E+00	 4.003E+00	 3.117E+01	 4.987E+03	 4.115E+03	 5.234E+03	 4.281E+01	 7.015E+02
  15.850	 0.000E+00	-1.062E+00	 4.236E+00	 2.418E+02	 0.000E+00	 3.972E+03	 8.491E+03	 5.441E-01	 1.227E+01	 0.000E+00	 0.000E+00	 0.000E+00	 4.247E+00	 0.000E+00	 8.670E+01	 0.000E+00	 0.000E+00	 0.000E+00	 4.007E+00	 3.119E+01	 4.987E+03	 4.111E+03	 5.229E+03	 4.281E+01	 7.021E+02
  15.863	 0.000E+00	-1.064E+00	 4.239E+00	 2.421E+02	 0.000E+00	 3.986E+03	 8.498E+03	 5.463E-01	 1.233E+01	 0.000E+00	 0.000E+00	 0.000E+00	 4.264E+00	 0.000E+00	 8.676E+01	 0.000E+00	 0.000E+00	 0.000E+00	 4.011E+00	 3.121E+01	 4.987E+03	 4.107E+03	 5.223E+03	 4.281E+01	 7.027E+02
  15.875	 0.000E+00	-1.066E+00	 4.241E+00	 2.424E+02	 0.000E+00	 4.002E+03	 8.505E+03	 5.491E-01	 1.240E+01	 0.000E+00	 0.000E+00	 0.000E+00	 4.288E+00	 0.000E+00	 8.680E+01	 0.000E+00	 0.000E+00	 0.000E+00	 4.014E+00	 3.123E+01	 4.987E+03	 4.102E+03	 5.217E+03	 4.282E+01	 7.034E+02
  15.888	 0.000E+00	-1.069E+00	 4.244E+00	 2.427E+02	 0.000E+00	 4.018E+03	 8.512E+03	 5.529E-01	 1.249E+01	 0.000E+00	 0.000E+00	 0.000E+00	 4.319E+00	 0.000E+00	 8.686E+01	 0.000E+00	 0.000E+00	 0.000E+00	 4.018E+00	 3.125E+01	 4.987E+03	 4.098E+03	 5.211E+03	 4.282E+01	 7.040E+02
  15.900	 0.000E+00	-1.072E+00	 4.247E+00	 2.430E+02	 0.000E+00	 4.036E+03	 8.519E+03	 5.574E-01	 1.260E+01	 0.000E+00	 0.000E+00	 0.000E+00	 4.357E+00	 0.000E+00	 8.690E+01	 0.000E+00	 0.000E+00	 0.000E+00	 4.021E+00	 3.127E+01	 4.986E+03	 4.094E+03	 5.205E+03	 4.282E+01	 7.046E+02
  15.913	 0.000E+00	-1.075E+00	 4.250E+00	 2.433E+02	 0.000E+00	 4.055E+03	 8.527E+03	 5.627E-01	 1.274E+01	 0.000E+00	 0.000E+00	 0.000E+00	 4.403E+00	 0.000E+00	 8.695E+01	 0.000E+00	 0.000E+00	 0.000E+00	 4.025E+00	 3.129E+01	 4.986E+03	 4.090E+03	 5.199E+03	 4.282E+01	 7.052E+02
  15.925	 0.000E+00	-1.079E+00	 4.253E+00	 2.436E+02	 0.000E+00	 4.076E+03	 8.534E+03	 5.686E-01	 1.289E+01	 0.000E+00	 0.000E+00	 0.000E+00	 4.454E+00	 0.000E+00	 8.699E+01	 0.000E+00	 0.000E+00	 0.000E+00	 4.028E+00	 3.130E+01	 4.986E+03	 4.086E+03	 5.194E+03	 4.282E+01	 7.058E+02
  15.938	 0.000E+00	-1.082E+00	 4.256E+00	 2.438E+02	 0.000E+00	 4.097E+03	 8.541E+03	 5.753E-01	 1.307E+01	 0.000E+00	 0.000E+00	 0.000E+00	 4.512E+00	 0.000E+00	 8.704E+01	 0.000E+00	 0.000E+00	 0.000E+00	 4.032E+00	 3.132E+01	 4.985E+03	 4.083E+03	 5.189E+03	 4.283E+01	 7.065E+02
  15.950	 0.000E+00	-1.086E+00	 4.259E+00	 2.441E+02	 0.000E+00	 4.120E+03	 8.549E+03	 5.825E-01	 1.326E+01	 0.000E+00	 0.000E+00	 0.000E+00	 4.575E+00	 0.000E+00	 8.708E+01	 0.000E+00	 0.000E+00	 0.000E+00	 4.035E+00	 3.134E+01	 4.985E+03	 4.080E+03	 5.185E+03	 4.283E+01	 7.071E+02
  15.963	 0.000E+00	-1.091E+00	 4.262E+00	 2.444E+02	 0.000E+00	 4.143E+03	 8.556E+03	 5.904E-01	 1.346E+01	 0.000E+00	 0.000E+00	 0.000E+00	 4.644E+00	 0.000E+00	 8.712E+01	 0.000E+00	 0.000E+00	 0.000E+00	 4.039E+00	 3.136E+01	 4.984E+03	 4.078E+03	 5.181E+03	 4.283E+01	 7.077E+02
  15.975	 0.000E+00	-1.095E+00	 4.266E+00	 2.447E+02	 0.000E+00	 4.167E+03	 8.563E+03	 5.987E-01	 1.368E+01	 0.000E+00	 0.000E+00	 0.000E+00	 4.716E+00	 0.000E+00	 8.717E+01	 0.000E+00	 0.000E+00	 0.000E+00	 4.042E+00	 3.137E+01	 4.984E+03	 4.076E+03	 5.178E+03	 4.283E+01	 7.084E+02
  15.988	 0.000E+00	-1.099E+00	 4.269E+00	 2.450E+02	 0.000E+00	 4.192E+03	 8.570E+03	 6.075E-01	 1.391E+01	 0.000E+00	 0.000E+00	 0.000E+00	 4.793E+00	 0.000E+00	 8.722E+01	 0.000E+00	 0.000E+00	 0.000E+00	 4.045E+00	 3.139E+01	 4.983E+03	 4.074E+03	 5.176E+03	 4.284E+01	 7.090E+02
  16.000	 0.000E+00	-1.104E+00	 4.272E+00	 2.452E+02	 0.000E+00	 4.217E+03	 8.578E+03	 6.165E-01	 1.415E+01	 0.000E+00	 0.000E+00	 0.000E+00	 4.872E+00	 0.000E+00	 8.727E+01	 0.000E+00	 0.000E+00	 0.000E+00	 4.049E+00	 3.141E+01	 4.983E+03	 4.073E+03	 5.174E+03	 4.284E+01	 7.096E+02
  16.012	 0.000E+00	-1.109E+00	 4.276E+00	 2.455E+02	 0.000E+00	 4.242E+03	 8.585E+03	 6.259E-01	 1.440E+01	 0.000E+00	 0.000E+00	 0.000E+00	 4.955E+00	 0.000E+00	 8.732E+01	 0.000E+00	 0.000E+00	 0.000E+00	 4.052E+00	 3.143E+01	 4.983E+03	 4.073E+03	 5.173E+03	 4.284E+01	 7.102E+02
  16.025	 0.000E+00	-1.114E+00	 4.279E+00	 2.458E+02	 0.000E+00	 4.268E+03	 8.593E+03	 6.353E-01	 1.465E+01	 0.000E+00	 0.000E+00	 0.000E+00	 5.038E+00	 0.000E+00	 8.737E+01	 0.000E+00	 0.000E+00	 0.000E+00	 4.055E+00	 3.145E+01	 4.982E+03	 4.073E+03	 5.173E+03	 4.285E+01	 7.108E+02
  16.038	 0.000E+00	-1.119E+00	 4.283E+00	 2.461E+02	 0.000E+00	 4.294E+03	 8.600E+03	 6.451E-01	 1.491E+01	 0.000E+00	 0.000E+00	 0.000E+00	 5.124E+00	 0.000E+00	 8.743E+01	 0.000E+00	 0.000E+00	 0.000E+00	 4.059E+00	 3.147E+01	 4.982E+03	 4.074E+03	 5.174E+03	 4.285E+01	 7.115E+02
  16.050	 0.000E+00	-1.123E+00	 4.287E+00	 2.463E+02	 0.000E+00	 4.319E+03	 8.608E+03	 6.548E-01	 1.516E+01	 0.000E+00	 0.000E+00	 0.000E+00	 5.210E+00	 0.000E+00	 8.748E+01	 0.000E+00	 0.000E+00	 0.000E+00	 4.062E+00	 3.149E+01	 4.981E+03	 4.076E+03	 5.175E+03	 4.285E+01	 7.121E+02
  16.062	 0.000E+00	-1.128E+00	 4.291E+00	 2.466E+02	 0.000E+00	 4.344E+03	 8.615E+03	 6.646E-01	 1.542E+01	 0.000E+00	 0.000E+00	 0.000E+00	 5.297E+00	 0.000E+00	 8.754E+01	 0.000E+00	 0.000E+00	 0.000E+00	 4.066E+00	 3.151E+01	 4.981E+03	 4.078E+03	 5.177E+03	 4.285E+01	 7.127E+02
  16.075	 0.000E+00	-1.133E+00	 4.295E+00	 2.469E+02	 0.000E+00	 4.369E+03	 8.623E+03	 6.742E-01	 1.568E+01	 0.000E+00	 0.000E+00	 0.000E+00	 5.382E+00	 0.000E+00	 8.760E+01	 0.000E+00	 0.000E+00	 0.000E+00	 4.069E+00	 3.153E+01	 4.980E+03	 4.081E+03	 5.180E+03	 4.286E+01	 7.133E+02
  16.088	 0.000E+00	-1.138E+00	 4.299E+00	 2.472E+02	 0.000E+00	 4.393E+03	 8.630E+03	 6.840E-01	 1.594E+01	 0.000E+00	 0.000E+00	 0.000E+00	 5.468E+00	 0.000E+00	 8.766E+01	 0.000E+00	 0.000E+00	 0.000E+00	 4.073E+00	 3.155E+01	 4.980E+03	 4.084E+03	 5.184E+03	 4.286E+01	 7.139E+02
  16.100	 0.000E+00	-1.142E+00	 4.303E+00	 2.474E+02	 0.000E+00	 4.415E+03	 8.638E+03	 6.933E-01	 1.619E+01	 0.000E+00	 0.000E+00	 0.000E+00	 5.550E+00	 0.000E+00	 8.773E+01	 0.000E+00	 0.000E+00	 0.000E+00	 4.076E+00	 3.157E+01	 4.980E+03	 4.088E+03	 5.188E+03	 4.286E+01	 7.145E+02
  16.113	 0.000E+00	-1.147E+00	 4.307E+00	 2.477E+02	 0.000E+00	 4.437E+03	 8.646E+03	 7.027E-01	 1.643E+01	 0.000E+00	 0.000E+00	 0.000E+00	 5.634E+00	 0.000E+00	 8.780E+01	 0.000E+00	 0.000E+00	 0.000E+00	 4.080E+00	 3.160E+01	 4.979E+03	 4.092E+03	 5.192E+03	 4.287E+01	 7.151E+02
  16.125	 0.000E+00	-1.151E+00	 4.311E+00	 2.480E+02	 0.000E+00	 4.457E+03	 8.654E+03	 7.115E-01	 1.667E+01	 0.000E+00	 0.000E+00	 0.000E+00	 5.712E+00	 0.000E+00	 8.786E+01	 0.000E+00	 0.000E+00	 0.000E+00	 4.084E+00	 3.162E+01	 4.979E+03	 4.096E+03	 5.198E+03	 4.287E+01	 7.156E+02
  16.137	 0.000E+00	-1.155E+00	 4.316E+00	 2.483E+02	 0.000E+00	 4.476E+03	 8.662E+03	 7.204E-01	 1.690E+01	 0.000E+00	 0.000E+00	 0.000E+00	 5.791E+00	 0.000E+00	 8.793E+01	 0.000E+00	 0.000E+00	 0.000E+00	 4.087E+00	 3.165E+01	 4.979E+03	 4.101E+03	 5.203E+03	 4.287E+01	 7.162E+02
  16.150	 0.000E+00	-1.159E+00	 4.320E+00	 2.486E+02	 0.000E+00	 4.492E+03	 8.670E+03	 7.285E-01	 1.712E+01	 0.000E+00	 0.000E+00	 0.000E+00	 5.863E+00	 0.000E+00	 8.800E+01	 0.000E+00	 0.000E+00	 0.000E+00	 4.091E+00	 3.167E+01	 4.979E+03	 4.106E+03	 5.209E+03	 4.288E+01	 7.168E+02
  16.163	 0.000E+00	-1.162E+00	 4.324E+00	 2.489E+02	 0.000E+00	 4.507E+03	 8.678E+03	 7.366E-01	 1.733E+01	 0.000E+00	 0.000E+00	 0.000E+00	 5.935E+00	 0.000E+00	 8.807E+01	 0.000E+00	 0.000E+00	 0.000E+00	 4.095E+00	 3.170E+01	 4.979E+03	 4.111E+03	 5.215E+03	 4.288E+01	 7.174E+02
  16.175	 0.000E+00	-1.165E+00	 4.329E+00	 2.492E+02	 0.000E+00	 4.520E+03	 8.687E+03	 7.438E-01	 1.752E+01	 0.000E+00	 0.000E+00	 0.000E+00	 5.999E+00	 0.000E+00	 8.815E+01	 0.000E+00	 0.000E+00	 0.000E+00	 4.098E+00	 3.172E+01	 4.979E+03	 4.116E+03	 5.220E+03	 4.289E+01	 7.180E+02
  16.188	 0.000E+00	-1.168E+00	 4.333E+00	 2.495E+02	 0.000E+00	 4.530E+03	 8.695E+03	 7.508E-01	 1.771E+01	 0.000E+00	 0.000E+00	 0.000E+00	 6.062E+00	 0.000E+00	 8.822E+01	 0.000E+00	 0.000E+00	 0.000E+00	 4.102E+00	 3.175E+01	 4.979E+03	 4.121E+03	 5.226E+03	 4.289E+01	 7.186E+02
  16.200	 0.000E+00	-1.170E+00	 4.338E+00	 2.498E+02	 0.000E+00	 4.538E+03	 8.703E+03	 7.569E-01	 1.787E+01	 0.000E+00	 0.000E+00	 0.000E+00	 6.115E+00	 0.000E+00	 8.830E+01	 0.000E+00	 0.000E+00	 0.000E+00	 4.106E+00	 3.177E+01	 4.979E+03	 4.126E+03	 5.232E+03	 4.289E+01	 7.191E+02
  16.213	 0.000E+00	-1.172E+00	 4.342E+00	 2.501E+02	 0.000E+00	 4.543E+03	 8.712E+03	 7.627E-01	 1.802E+01	 0.000E+00	 0.000E+00	 0.000E+00	 6.167E+00	 0.000E+00	 8.837E+01	 0.000E+00	 0.000E+00	 0.000E+00	 4.109E+00	 3.180E+01	 4.979E+03	 4.130E+03	 5.237E+03	 4.290E+01	 7.197E+02
  16.225	 0.000E+00	-1.174E+00	 4.347E+00	 2.504E+02	 0.000E+00	 4.545E+03	 8.721E+03	 7.672E-01	 1.814E+01	 0.000E+00	 0.000E+00	 0.000E+00	 6.208E+00	 0.000E+00	 8.845E+01	 0.000E+00	 0.000E+00	 0.000E+00	 4.113E+00	 3.183E+01	 4.979E+03	 4.135E+03	 5.243E+03	 4.290E+01	 7.203E+02
  16.238	 0.000E+00	-1.175E+00	 4.352E+00	 2.508E+02	 0.000E+00	 4.545E+03	 8.729E+03	 7.715E-01	 1.825E+01	 0.000E+00	 0.000E+00	 0.000E+00	 6.247E+00	 0.000E+00	 8.853E+01	 0.000E+00	 0.000E+00	 0.000E+00	 4.117E+00	 3.185E+01	 4.979E+03	 4.139E+03	 5.247E+03	 4.290E+01	 7.209E+02
  16.250	 0.000E+00	-1.175E+00	 4.356E+00	 2.511E+02	 0.000E+00	 4.541E+03	 8.738E+03	 7.743E-01	 1.833E+01	 0.000E+00	 0.000E+00	 0.000E+00	 6.273E+00	 0.000E+00	 8.862E+01	 0.000E+00	 0.000E+00	 0.000E+00	 4.121E+00	 3.188E+01	 4.979E+03	 4.142E+03	 5.252E+03	 4.291E+01	 7.214E+02
  16.262	 0.000E+00	-1.175E+00	 4.361E+00	 2.514E+02	 0.000E+00	 4.535E+03	 8.747E+03	 7.769E-01	 1.839E+01	 0.000E+00	 0.000E+00	 0.000E+00	 6.295E+00	 0.000E+00	 8.870E+01	 0.000E+00	 0.000E+00	 0.000E+00	 4.125E+00	 3.191E+01	 4.980E+03	 4.146E+03	 5.255E+03	 4.291E+01	 7.220E+02
  16.275	 0.000E+00	-1.175E+00	 4.366E+00	 2.517E+02	 0.000E+00	 4.525E+03	 8.756E+03	 7.778E-01	 1.842E+01	 0.000E+00	 0.000E+00	 0.000E+00	 6.304E+00	 0.000E+00	 8.879E+01	 0.000E+00	 0.000E+00	 0.000E+00	 4.129E+00	 3.194E+01	 4.980E+03	 4.148E+03	 5.258E+03	 4.291E+01	 7.226E+02
  16.288	 0.000E+00	-1.174E+00	 4.370E+00	 2.520E+02	 0.000E+00	 4.512E+03	 8.764E+03	 7.784E-01	 1.843E+01	 0.000E+00	 0.000E+00	 0.000E+00	 6.309E+00	 0.000E+00	 8.888E+01	 0.000E+00	 0.000E+00	 0.000E+00	 4.133E+00	 3.198E+01	 4.980E+03	 4.150E+03	 5.261E+03	 4.292E+01	 7.231E+02
  16.300	 0.000E+00	-1.172E+00	 4.375E+00	 2.524E+02	 0.000E+00	 4.496E+03	 8.773E+03	 7.772E-01	 1.839E+01	 0.000E+00	 0.000E+00	 0.000E+00	 6.300E+00	 0.000E+00	 8.897E+01	 0.000E+00	 0.000E+00	 0.000E+00	 4.137E+00	 3.201E+01	 4.980E+03	 4.152E+03	 5.262E+03	 4.292E+01	 7.237E+02
  16.312	 0.000E+00	-1.170E+00	 4.379E+00	 2.527E+02	 0.000E+00	 4.476E+03	 8.782E+03	 7.757E-01	 1.835E+01	 0.000E+00	 0.000E+00	 0.000E+00	 6.286E+00	 0.000E+00	 8.907E+01	 0.000E+00	 0.000E+00	 0.000E+00	 4.142E+00	 3.204E+01	 4.981E+03	 4.153E+03	 5.263E+03	 4.292E+01	 7.242E+02
  16.325	 0.000E+00	-1.168E+00	 4.384E+00	 2.530E+02	 0.000E+00	 4.454E+03	 8.790E+03	 7.724E-01	 1.826E+01	 0.000E+00	 0.000E+00	 0.000E+00	 6.257E+00	 0.000E+00	 8.917E+01	 0.000E+00	 0.000E+00	 0.000E+00	 4.146E+00	 3.208E+01	 4.981E+03	 4.154E+03	 5.264E+03	 4.293E+01	 7.248E+02
  16.338	 0.000E+00	-1.165E+00	 4.389E+00	 2.533E+02	 0.000E+00	 4.428E+03	 8.799E+03	 7.687E-01	 1.815E+01	 0.000E+00	 0.000E+00	 0.000E+00	 6.224E+00	 0.000E+00	 8.928E+01	 0.000E+00	 0.000E+00	 0.000E+00	 4.151E+00	 3.212E+01	 4.981E+03	 4.153E+03	 5.263E+03	 4.293E+01	 7.253E+02
  16.350	 0.000E+00	-1.161E+00	 4.393E+00	 2.537E+02	 0.000E+00	 4.399E+03	 8.807E+03	 7.632E-01	 1.800E+01	 0.000E+00	 0.000E+00	 0.000E+00	 6.176E+00	 0.000E+00	 8.938E+01	 0.000E+00	 0.000E+00	 0.000E+00	 4.156E+00	 3.215E+01	 4.981E+03	 4.153E+03	 5.262E+03	 4.293E+01	 7.258E+02
  16.363	 0.000E+00	-1.157E+00	 4.397E+00	 2.540E+02	 0.000E+00	 4.367E+03	 8.815E+03	 7.574E-01	 1.784E+01	 0.000E+00	 0.000E+00	 0.000E+00	 6.125E+00	 0.000E+00	 8.950E+01	 0.000E+00	 0.000E+00	 0.000E+00	 4.161E+00	 3.220E+01	 4.982E+03	 4.152E+03	 5.260E+03	 4.294E+01	 7.263E+02
  16.375	 0.000E+00	-1.152E+00	 4.402E+00	 2.543E+02	 0.000E+00	 4.333E+03	 8.823E+03	 7.499E-01	 1.763E+01	 0.000E+00	 0.000E+00	 0.000E+00	 6.058E+00	 0.000E+00	 8.961E+01	 0.000E+00	 0.000E+00	 0.000E+00	 4.166E+00	 3.223E+01	 4.982E+03	 4.150E+03	 5.258E+03	 4.294E+01	 7.268E+02
  16.387	 0.000E+00	-1.147E+00	 4.406E+00	 2.546E+02	 0.000E+00	 4.295E+03	 8.831E+03	 7.422E-01	 1.742E+01	 0.000E+00	 0.000E+00	 0.000E+00	 5.989E+00	 0.000E+00	 8.973E+01	 0.000E+00	 0.000E+00	 0.000E+00	 4.172E+00	 3.228E+01	 4.982E+03	 4.148E+03	 5.255E+03	 4.294E+01	 7.273E+02
  16.400	 0.000E+00	-1.141E+00	 4.410E+00	 2.549E+02	 0.000E+00	 4.254E+03	 8.839E+03	 7.328E-01	 1.717E+01	 0.000E+00	 0.000E+00	 0.000E+00	 5.906E+00	 0.000E+00	 8.985E+01	 0.000E+00	 0.000E+00	 0.000E+00	 4.178E+00	 3.232E+01	 4.982E+03	 4.145E+03	 5.251E+03	 4.294E+01	 7.277E+02
  16.413	 0.000E+00	-1.135E+00	 4.414E+00	 2.553E+02	 0.000E+00	 4.211E+03	 8.847E+03	 7.235E-01	 1.691E+01	 0.000E+00	 0.000E+00	 0.000E+00	 5.822E+00	 0.000E+00	 8.998E+01	 0.000E+00	 0.000E+00	 0.000E+00	 4.184E+00	 3.237E+01	 4.982E+03	 4.142E+03	 5.247E+03	 4.295E+01	 7.281E+02
  16.425	 0.000E+00	-1.128E+00	 4.418E+00	 2.556E+02	 0.000E+00	 4.166E+03	 8.854E+03	 7.125E-01	 1.661E+01	 0.000E+00	 0.000E+00	 0.000E+00	 5.724E+00	 0.000E+00	 9.009E+01	 0.000E+00	 0.000E+00	 0.000E+00	 4.189E+00	 3.241E+01	 4.982E+03	 4.139E+03	 5.243E+03	 4.295E+01	 7.285E+02
  16.438	 0.000E+00	-1.121E+00	 4.422E+00	 2.559E+02	 0.000E+00	 4.118E+03	 8.861E+03	 7.018E-01	 1.631E+01	 0.000E+00	 0.000E+00	 0.000E+00	 5.629E+00	 0.000E+00	 9.023E+01	 0.000E+00	 0.000E+00	 0.000E+00	 4.196E+00	 3.246E+01	 4.983E+03	 4.136E+03	 5.238E+03	 4.295E+01	 7.289E+02
  16.450	 0.000E+00	-1.114E+00	 4.426E+00	 2.561E+02	 0.000E+00	 4.068E+03	 8.868E+03	 6.897E-01	 1.598E+01	 0.000E+00	 0.000E+00	 0.000E+00	 5.520E+00	 0.000E+00	 9.035E+01	 0.000E+00	 0.000E+00	 0.000E+00	 4.202E+00	 3.251E+01	 4.983E+03	 4.133E+03	 5.234E+03	 4.296E+01	 7.293E+02
  16.463	 0.000E+00	-1.106E+00	 4.429E+00	 2.564E+02	 0.000E+00	 4.016E+03	 8.875E+03	 6.780E-01	 1.566E+01	 0.000E+00	 0.000E+00	 0.000E+00	 5.416E+00	 0.000E+00	 9.049E+01	 0.000E+00	 0.000E+00	 0.000E+00	 4.209E+00	 3.256E+01	 4.983E+03	 4.129E+03	 5.229E+03	 4.296E+01	 7.296E+02
  16.475	 0.000E+00	-1.098E+00	 4.433E+00	 2.567E+02	 0.000E+00	 3.963E+03	 8.881E+03	 6.650E-01	 1.530E+01	 0.000E+00	 0.000E+00	 0.000E+00	 5.300E+00	 0.000E+00	 9.060E+01	 0.000E+00	 0.000E+00	 0.000E+00	 4.214E+00	 3.260E+01	 4.983E+03	 4.126E+03	 5.224E+03	 4.296E+01	 7.299E+02
  16.488	 0.000E+00	-1.090E+00	 4.436E+00	 2.570E+02	 0.000E+00	 3.908E+03	 8.887E+03	 6.527E-01	 1.496E+01	 0.000E+00	 0.000E+00	 0.000E+00	 5.190E+00	 0.000E+00	 9.074E+01	 0.000E+00	 0.000E+00	 0.000E+00	 4.221E+00	 3.266E+01	 4.982E+03	 4.123E+03	 5.220E+03	 4.297E+01	 7.302E+02
  16.500	 0.000E+00	-1.082E+00	 4.440E+00	 2.572E+02	 0.000E+00	 3.852E+03	 8.893E+03	 6.392E-01	 1.460E+01	 0.000E+00	 0.000E+00	 0.000E+00	 5.070E+00	 0.000E+00	 9.086E+01	 0.000E+00	 0.000E+00	 0.000E+00	 4.227E+00	 3.270E+01	 4.982E+03	 4.120E+03	 5.215E+03	 4.297E+01	 7.305E+02
  16.512	 0.000E+00	-1.073E+00	 4.443E+00	 2.575E+02	 0.000E+00	 3.795E+03	 8.898E+03	 6.266E-01	 1.425E+01	 0.000E+00	 0.000E+00	 0.000E+00	 4.958E+00	 0.000E+00	 9.100E+01	 0.000E+00	 0.000E+00	 0.000E+00	 4.234E+00	 3.276E+01	 4.982E+03	 4.117E+03	 5.211E+03	 4.297E+01	 7.307E+02
  16.525	 0.000E+00	-1.065E+00	 4.446E+00	 2.577E+02	 0.000E+00	 3.737E+03	 8.903E+03	 6.131E-01	 1.388E+01	 0.000E+00	 0.000E+00	 0.000E+00	 4.837E+00	 0.000E+00	 9.111E+01	 0.000E+00	 0.000E+00	 0.000E+00	 4.240E+00	 3.280E+01	 4.982E+03	 4.114E+03	 5.208E+03	 4.297E+01	 7.309E+02
  16.538	 0.000E+00	-1.056E+00	 4.448E+00	 2.580E+02	 0.000E+00	 3.678E+03	 8.908E+03	 6.006E-01	 1.353E+01	 0.000E+00	 0.000E+00	 0.000E+00	 4.725E+00	 0.000E+00	 9.125E+01	 0.000E+00	 0.000E+00	 0.000E+00	 4.247E+00	 3.285E+01	 4.982E+03	 4.112E+03	 5.205E+03	 4.298E+01	 7.312E+02
  16.550	 0.000E+00	-1.047E+00	 4.451E+00	 2.582E+02	 0.000E+00	 3.619E+03	 8.913E+03	 5.872E-01	 1.317E+01	 0.000E+00	 0.000E+00	 0.000E+00	 4.607E+00	 0.000E+00	 9.135E+01	 0.000E+00	 0.000E+00	 0.000E+00	 4.252E+00	 3.289E+01	 4.982E+03	 4.111E+03	 5.203E+03	 4.298E+01	 7.313E+02
  16.562	 0.000E+00	-1.038E+00	 4.453E+00	 2.584E+02	 0.000E+00	 3.559E+03	 8.917E+03	 5.750E-01	 1.283E+01	 0.000E+00	 0.000E+00	 0.000E+00	 4.498E+00	 0.000E+00	 9.149E+01	 0.000E+00	 0.000E+00	 0.000E+00	 4.260E+00	 3.295E+01	 4.981E+03	 4.110E+03	 5.201E+03	 4.298E+01	 7.315E+02
  16.575	 0.000E+00	-1.029E+00	 4.456E+00	 2.586E+02	 0.000E+00	 3.500E+03	 8.921E+03	 5.621E-01	 1.248E+01	 0.000E+00	 0.000E+00	 0.000E+00	 4.384E+00	 0.000E+00	 9.158E+01	 0.000E+00	 0.000E+00	 0.000E+00	 4.265E+00	 3.298E+01	 4.981E+03	 4.109E+03	 5.200E+03	 4.299E+01	 7.316E+02
  16.588	 0.000E+00	-1.021E+00	 4.458E+00	 2.588E+02	 0.000E+00	 3.440E+03	 8.924E+03	 5.505E-01	 1.216E+01	 0.000E+00	 0.000E+00	 0.000E+00	 4.280E+00	 0.000E+00	 9.171E+01	 0.000E+00	 0.000E+00	 0.000E+00	 4.272E+00	 3.304E+01	 4.981E+03	 4.109E+03	 5.199E+03	 4.299E+01	 7.318E+02
  16.600	 0.000E+00	-1.012E+00	 4.460E+00	 2.590E+02	 0.000E+00	 3.381E+03	 8.927E+03	 5.383E-01	 1.183E+01	 0.000E+00	 0.000E+00	 0.000E+00	 4.172E+00	 0.000E+00	 9.180E+01	 0.000E+00	 0.000E+00	 0.000E+00	 4.277E+00	 3.307E+01	 4.981E+03	 4.109E+03	 5.199E+03	 4.299E+01	 7.319E+02
  16.613	 0.000E+00	-1.003E+00	 4.462E+00	 2.592E+02	 0.000E+00	 3.323E+03	 8.930E+03	 5.273E-01	 1.153E+01	 0.000E+00	 0.000E+00	 0.000E+00	 4.074E+00	 0.000E+00	 9.193E+01	 0.000E+00	 0.000E+00	 0.000E+00	 4.284E+00	 3.312E+01	 4.980E+03	 4.111E+03	 5.200E+03	 4.300E+01	 7.320E+02
  16.625	 0.000E+00	-9.950E-01	 4.463E+00	 2.594E+02	 0.000E+00	 3.265E+03	 8.933E+03	 5.159E-01	 1.122E+01	 0.000E+00	 0.000E+00	 0.000E+00	 3.973E+00	 0.000E+00	 9.201E+01	 0.000E+00	 0.000E+00	 0.000E+00	 4.288E+00	 3.315E+01	 4.980E+03	 4.112E+03	 5.202E+03	 4.300E+01	 7.320E+02
  16.637	 0.000E+00	-9.867E-01	 4.465E+00	 2.595E+02	 0.000E+00	 3.208E+03	 8.935E+03	 5.058E-01	 1.094E+01	 0.000E+00	 0.000E+00	 0.000E+00	 3.884E+00	 0.000E+00	 9.213E+01	 0.000E+00	 0.000E+00	 0.000E+00	 4.295E+00	 3.320E+01	 4.980E+03	 4.114E+03	 5.204E+03	 4.300E+01	 7.321E+02
  16.650	 0.000E+00	-9.786E-01	 4.466E+00	 2.597E+02	 0.000E+00	 3.152E+03	 8.937E+03	 4.953E-01	 1.065E+01	 0.000E+00	 0.000E+00	 0.000E+00	 3.791E+00	 0.000E+00	 9.221E+01	 0.000E+00	 0.000E+00	 0.000E+00	 4.299E+00	 3.323E+01	 4.980E+03	 4.117E+03	 5.207E+03	 4.301E+01	 7.321E+02
  16.663	 0.000E+00	-9.707E-01	 4.468E+00	 2.598E+02	 0.000E+00	 3.096E+03	 8.939E+03	 4.861E-01	 1.040E+01	 0.000E+00	 0.000E+00	 0.000E+00	 3.710E+00	 0.000E+00	 9.232E+01	 0.000E+00	 0.000E+00	 0.000E+00	 4.306E+00	 3.328E+01	 4.980E+03	 4.120E+03	 5.211E+03	 4.301E+01	 7.322E+02
  16.675	 0.000E+00	-9.629E-01	 4.469E+00	 2.599E+02	 0.000E+00	 3.042E+03	 8.940E+03	 4.767E-01	 1.014E+01	 0.000E+00	 0.000E+00	 0.000E+00	 3.626E+00	 0.000E+00	 9.239E+01	 0.000E+00	 0.000E+00	 0.000E+00	 4.310E+00	 3.331E+01	 4.980E+03	 4.124E+03	 5.215E+03	 4.301E+01	 7.322E+02
  16.688	 0.000E+00	-9.554E-01	 4.470E+00	 2.600E+02	 0.000E+00	 2.990E+03	 8.941E+03	 4.684E-01	 9.912E+00	 0.000E+00	 0.000E+00	 0.000E+00	 3.554E+00	 0.000E+00	 9.249E+01	 0.000E+00	 0.000E+00	 0.000E+00	 4.316E+00	 3.335E+01	 4.980E+03	 4.128E+03	 5.220E+03	 4.302E+01	 7.322E+02
  16.700	 0.000E+00	-9.482E-01	 4.471E+00	 2.601E+02	 0.000E+00	 2.938E+03	 8.942E+03	 4.601E-01	 9.686E+00	 0.000E+00	 0.000E+00	 0.000E+00	 3.480E+00	 0.000E+00	 9.255E+01	 0.000E+00	 0.000E+00	 0.000E+00	 4.320E+00	 3.338E+01	 4.980E+03	 4.132E+03	 5.225E+03	 4.302E+01	 7.322E+02
  16.713	 0.000E+00	-9.411E-01	 4.472E+00	 2.603E+02	 0.000E+00	 2.888E+03	 8.942E+03	 4.529E-01	 9.486E+00	 0.000E+00	 0.000E+00	 0.000E+00	 3.417E+00	 0.000E+00	 9.265E+01	 0.000E+00	 0.000E+00	 0.000E+00	 4.326E+00	 3.342E+01	 4.980E+03	 4.136E+03	 5.230E+03	 4.302E+01	 7.322E+02
  16.725	 0.000E+00	-9.344E-01	 4.473E+00	 2.603E+02	 0.000E+00	 2.840E+03	 8.943E+03	 4.457E-01	 9.291E+00	 0.000E+00	 0.000E+00	 0.000E+00	 3.354E+00	 0.000E+00	 9.270E+01	 0.000E+00	 0.000E+00	 0.000E+00	 4.329E+00	 3.344E+01	 4.980E+03	 4.141E+03	 5.236E+03	 4.303E+01	 7.321E+02
  16.738	 0.000E+00	-9.278E-01	 4.473E+00	 2.604E+02	 0.000E+00	 2.792E+03	 8.943E+03	 4.396E-01	 9.121E+00	 0.000E+00	 0.000E+00	 0.000E+00	 3.301E+00	 0.000E+00	 9.279E+01	 0.000E+00	 0.000E+00	 0.000E+00	 4.334E+00	 3.347E+01	 4.980E+03	 4.146E+03	 5.242E+03	 4.303E+01	 7.321E+02
  16.750	 0.000E+00	-9.216E-01	 4.474E+00	 2.605E+02	 0.000E+00	 2.747E+03	 8.943E+03	 4.336E-01	 8.959E+00	 0.000E+00	 0.000E+00	 0.000E+00	 3.248E+00	 0.000E+00	 9.284E+01	 0.000E+00	 0.000E+00	 0.000E+00	 4.338E+00	 3.349E+01	 4.980E+03	 4.151E+03	 5.248E+03	 4.303E+01	 7.320E+02
  16.762	 0.000E+00	-9.156E-01	 4.474E+00	 2.606E+02	 0.000E+00	 2.703E+03	 8.943E+03	 4.287E-01	 8.821E+00	 0.000E+00	 0.000E+00	 0.000E+00	 3.205E+00	 0.000E+00	 9.291E+01	 0.000E+00	 0.000E+00	 0.000E+00	 4.342E+00	 3.353E+01	 4.980E+03	 4.156E+03	 5.254E+03	 4.304E+01	 7.320E+02
  16.775	 0.000E+00	-9.100E-01	 4.475E+00	 2.606E+02	 0.000E+00	 2.660E+03	 8.943E+03	 4.239E-01	 8.692E+00	 0.000E+00	 0.000E+00	 0.000E+00	 3.164E+00	 0.000E+00	 9.296E+01	 0.000E+00	 0.000E+00	 0.000E+00	 4.345E+00	 3.354E+01	 4.980E+03	 4.161E+03	 5.260E+03	 4.304E+01	 7.319E+02
  16.788	 0.000E+00	-9.045E-01	 4.475E+00	 2.607E+02	 0.000E+00	 2.619E+03	 8.943E+03	 4.201E-01	 8.586E+00	 0.000E+00	 0.000E+00	 0.000E+00	 3.132E+00	 0.000E+00	 9.302E+01	 0.000E+00	 0.000E+00	 0.000E+00	 4.350E+00	 3.357E+01	 4.981E+03	 4.166E+03	 5.266E+03	 4.304E+01	 7.319E+02
  16.800	 0.000E+00	-8.994E-01	 4.476E+00	 2.608E+02	 0.000E+00	 2.579E+03	 8.942E+03	 4.165E-01	 8.489E+00	 0.000E+00	 0.000E+00	 0.000E+00	 3.101E+00	 0.000E+00	 9.306E+01	 0.000E+00	 0.000E+00	 0.000E+00	 4.352E+00	 3.359E+01	 4.981E+03	 4.171E+03	 5.272E+03	 4.305E+01	 7.318E+02
  16.812	 0.000E+00	-8.945E-01	 4.476E+00	 2.608E+02	 0.000E+00	 2.541E+03	 8.942E+03	 4.138E-01	 8.415E+00	 0.000E+00	 0.000E+00	 0.000E+00	 3.079E+00	 0.000E+00	 9.311E+01	 0.000E+00	 0.000E+00	 0.000E+00	 4.356E+00	 3.361E+01	 4.981E+03	 4.175E+03	 5.278E+03	 4.305E+01	 7.317E+02
  16.825	 0.000E+00	-8.899E-01	 4.476E+00	 2.609E+02	 0.000E+00	 2.504E+03	 8.941E+03	 4.114E-01	 8.351E+00	 0.000E+00	 0.000E+00	 0.000E+00	 3.059E+00	 0.000E+00	 9.313E+01	 0.000E+00	 0.000E+00	 0.000E+00	 4.358E+00	 3.362E+01	 4.982E+03	 4.179E+03	 5.283E+03	 4.305E+01	 7.316E+02
  16.838	 0.000E+00	-8.855E-01	 4.476E+00	 2.609E+02	 0.000E+00	 2.468E+03	 8.941E+03	 4.098E-01	 8.306E+00	 0.000E+00	 0.000E+00	 0.000E+00	 3.047E+00	 0.000E+00	 9.318E+01	 0.000E+00	 0.000E+00	 0.000E+00	 4.361E+00	 3.364E+01	 4.982E+03	 4.183E+03	 5.287E+03	 4.306E+01	 7.316E+02
  16.850	 0.000E+00	-8.814E-01	 4.476E+00	 2.610E+02	 0.000E+00	 2.434E+03	 8.941E+03	 4.085E-01	 8.272E+00	 0.000E+00	 0.000E+00	 0.000E+00	 3.037E+00	 0.000E+00	 9.319E+01	 0.000E+00	 0.000E+00	 0.000E+00	 4.362E+00	 3.365E+01	 4.982E+03	 4.186E+03	 5.292E+03	 4.306E+01	 7.315E+02
  16.863	 0.000E+00	-8.775E-01	 4.476E+00	 2.610E+02	 0.000E+00	 2.400E+03	 8.940E+03	 4.079E-01	 8.254E+00	 0.000E+00	 0.000E+00	 0.000E+00	 3.033E+00	 0.000E+00	 9.322E+01	 0.000E+00	 0.000E+00	 0.000E+00	 4.365E+00	 3.366E+01	 4.983E+03	 4.189E+03	 5.295E+03	 4.306E+01	 7.314E+02
  16.875	 0.000E+00	-8.737E-01	 4.476E+00	 2.611E+02	 0.000E+00	 2.368E+03	 8.940E+03	 4.075E-01	 8.246E+00	 0.000E+00	 0.000E+00	 0.000E+00	 3.032E+00	 0.000E+00	 9.323E+01	 0.000E+00	 0.000E+00	 0.000E+00	 4.366E+00	 3.367E+01	 4.983E+03	 4.192E+03	 5.298E+03	 4.306E+01	 7.314E+02
  16.887	 0.000E+00	-8.702E-01	 4.477E+00	 2.611E+02	 0.000E+00	 2.336E+03	 8.940E+03	 4.077E-01	 8.251E+00	 0.000E+00	 0.000E+00	 0.000E+00	 3.036E+00	 0.000E+00	 9.325E+01	 0.000E+00	 0.000E+00	 0.000E+00	 4.368E+00	 3.368E+01	 4.984E+03	 4.194E+03	 5.301E+03	 4.307E+01	 7.313E+02
  16.900	 0.000E+00	-8.668E-01	 4.477E+00	 2.612E+02	 0.000E+00	 2.305E+03	 8.939E+03	 4.081E-01	 8.263E+00	 0.000E+00	 0.000E+00	 0.000E+00	 3.041E+00	 0.000E+00	 9.326E+01	 0.000E+00	 0.000E+00	 0.000E+00	 4.369E+00	 3.368E+01	 4.984E+03	 4.195E+03	 5.302E+03	 4.307E+01	 7.312E+02
  16.913	 0.000E+00	-8.636E-01	 4.477E+00	 2.612E+02	 0.000E+00	 2.275E+03	 8.939E+03	 4.089E-01	 8.286E+00	 0.000E+00	 0.000E+00	 0.000E+00	 3.051E+00	 0.000E+00	 9.327E+01	 0.000E+00	 0.000E+00	 0.000E+00	 4.370E+00	 3.368E+01	 4.985E+03	 4.196E+03	 5.303E+03	 4.307E+01	 7.312E+02
  16.925	 0.000E+00	-8.604E-01	 4.477E+00	 2.613E+02	 0.000E+00	 2.245E+03	 8.939E+03	 4.098E-01	 8.312E+00	 0.000E+00	 0.000E+00	 0.000E+00	 3.061E+00	 0.000E+00	 9.326E+01	 0.000E+00	 0.000E+00	 0.000E+00	 4.370E+00	 3.368E+01	 4.985E+03	 4.196E+03	 5.304E+03	 4.308E+01	 7.311E+02
  16.938	 0.000E+00	-8.573E-01	 4.477E+00	 2.614E+02	 0.000E+00	 2.215E+03	 8.939E+03	 4.109E-01	 8.344E+00	 0.000E+00	 0.000E+00	 0.000E+00	 3.073E+00	 0.000E+00	 9.327E+01	 0.000E+00	 0.000E+00	 0.000E+00	 4.371E+00	 3.368E+01	 4.986E+03	 4.196E+03	 5.303E+03	 4.308E+01	 7.311E+02
  16.950	 0.000E+00	-8.543E-01	 4.477E+00	 2.614E+02	 0.000E+00	 2.185E+03	 8.939E+03	 4.120E-01	 8.378E+00	 0.000E+00	 0.000E+00	 0.000E+00	 3.086E+00	 0.000E+00	 9.326E+01	 0.000E+00	 0.000E+00	 0.000E+00	 4.371E+00	 3.368E+01	 4.986E+03	 4.195E+03	 5.302E+03	 4.308E+01	 7.310E+02
  16.963	 0.000E+00	-8.513E-01	 4.477E+00	 2.615E+02	 0.000E+00	 2.156E+03	 8.939E+03	 4.133E-01	 8.412E+00	 0.000E+00	 0.000E+00	 0.000E+00	 3.099E+00	 0.000E+00	 9.325E+01	 0.000E+00	 0.000E+00	 0.000E+00	 4.371E+00	 3.368E+01	 4.987E+03	 4.194E+03	 5.300E+03	 4.308E+01	 7.310E+02
  16.975	 0.000E+00	-8.483E-01	 4.477E+00	 2.616E+02	 0.000E+00	 2.126E+03	 8.940E+03	 4.144E-01	 8.445E+00	 0.000E+00	 0.000E+00	 0.000E+00	 3.112E+00	 0.000E+00	 9.324E+01	 0.000E+00	 0.000E+00	 0.000E+00	 4.371E+00	 3.368E+01	 4.987E+03	 4.192E+03	 5.298E+03	 4.308E+01	 7.310E+02
  16.988	 0.000E+00	-8.453E-01	 4.477E+00	 2.616E+02	 0.000E+00	 2.096E+03	 8.940E+03	 4.154E-01	 8.476E+00	 0.000E+00	 0.000E+00	 0.000E+00	 3.123E+00	 0.000E+00	 9.323E+01	 0.000E+00	 0.000E+00	 0.000E+00	 4.371E+00	 3.367E+01	 4.987E+03	 4.190E+03	 5.295E+03	 4.309E+01	 7.310E+02
  17.000	 0.000E+00	-8.422E-01	 4.477E+00	 2.617E+02	 0.000E+00	 2.066E+03	 8.941E+03	 4.162E-01	 8.501E+00	 0.000E+00	 0.000E+00	 0.000E+00	 3.133E+00	 0.000E+00	 9.322E+01	 0.000E+00	 0.000E+00	 0.000E+00	 4.371E+00	 3.367E+01	 4.988E+03	 4.187E+03	 5.292E+03	 4.309E+01	 7.309E+02
  17.012	 0.000E+00	-8.390E-01	 4.478E+00	 2.618E+02	 0.000E+00	 2.035E+03	 8.941E+03	 4.168E-01	 8.520E+00	 0.000E+00	 0.000E+00	 0.000E+00	 3.141E+00	 0.000E+00	 9.321E+01	 0.000E+00	 0.000E+00	 0.000E+00	 4.370E+00	 3.366E+01	 4.988E+03	 4.184E+03	 5.288E+03	 4.309E+01	 7.309E+02
  17.025	 0.000E+00	-8.357E-01	 4.478E+00	 2.618E+02	 0.000E+00	 2.003E+03	 8.942E+03	 4.171E-01	 8.531E+00	 0.000E+00	 0.000E+00	 0.000E+00	 3.146E+00	 0.000E+00	 9.320E+01	 0.000E+00	 0.000E+00	 0.000E+00	 4.370E+00	 3.366E+01	 4.988E+03	 4.181E+03	 5.284E+03	 4.309E+01	 7.309E+02
  17.038	 0.000E+00	-8.322E-01	 4.478E+00	 2.619E+02	 0.000E+00	 1.971E+03	 8.942E+03	 4.171E-01	 8.534E+00	 0.000E+00	 0.000E+00	 0.000E+00	 3.149E+00	 0.000E+00	 9.319E+01	 0.000E+00	 0.000E+00	 0.000E+00	 4.369E+00	 3.365E+01	 4.988E+03	 4.178E+03	 5.280E+03	 4.309E+01	 7.309E+02
  17.050	 0.000E+00	-8.286E-01	 4.479E+00	 2.620E+02	 0.000E+00	 1.937E+03	 8.943E+03	 4.166E-01	 8.527E+00	 0.000E+00	 0.000E+00	 0.000E+00	 3.148E+00	 0.000E+00	 9.318E+01	 0.000E+00	 0.000E+00	 0.000E+00	 4.369E+00	 3.365E+01	 4.989E+03	 4.174E+03	 5.276E+03	 4.310E+01	 7.308E+02
  17.062	 0.000E+00	-8.248E-01	 4.479E+00	 2.621E+02	 0.000E+00	 1.903E+03	 8.944E+03	 4.158E-01	 8.509E+00	 0.000E+00	 0.000E+00	 0.000E+00	 3.143E+00	 0.000E+00	 9.317E+01	 0.000E+00	 0.000E+00	 0.000E+00	 4.369E+00	 3.365E+01	 4.989E+03	 4.171E+03	 5.271E+03	 4.310E+01	 7.308E+02
  17.075	 0.000E+00	-8.208E-01	 4.479E+00	 2.621E+02	 0.000E+00	 1.867E+03	 8.944E+03	 4.146E-01	 8.479E+00	 0.000E+00	 0.000E+00	 0.000E+00	 3.135E+00	 0.000E+00	 9.317E+01	 0.000E+00	 0.000E+00	 0.000E+00	 4.368E+00	 3.364E+01	 4.989E+03	 4.167E+03	 5.267E+03	 4.310E+01	 7.308E+02
  17.088	 0.000E+00	-8.166E-01	 4.480E+00	 2.622E+02	 0.000E+00	 1.830E+03	 8.945E+03	 4.129E-01	 8.438E+00	 0.000E+00	 0.000E+00	 0.000E+00	 3.123E+00	 0.000E+00	 9.316E+01	 0.000E+00	 0.000E+00	 0.000E+00	 4.368E+00	 3.364E+01	 4.989E+03	 4.164E+03	 5.262E+03	 4.310E+01	 7.308E+02
  17.100	 0.000E+00	-8.121E-01	 4.480E+00	 2.623E+02	 0.000E+00	 1.791E+03	 8.946E+03	 4.107E-01	 8.383E+00	 0.000E+00	 0.000E+00	 0.000E+00	 3.106E+00	 0.000E+00	 9.316E+01	 0.000E+00	 0.000E+00	 0.000E+00	 4.368E+00	 3.364E+01	 4.989E+03	 4.161E+03	 5.258E+03	 4.310E+01	 7.307E+02
  17.113	 0.000E+00	-8.074E-01	 4.480E+00	 2.624E+02	 0.000E+00	 1.751E+03	 8.947E+03	 4.081E-01	 8.317E+00	 0.000E+00	 0.000E+00	 0.000E+00	 3.086E+00	 0.000E+00	 9.316E+01	 0.000E+00	 0.000E+00	 0.000E+00	 4.367E+00	 3.364E+01	 4.989E+03	 4.158E+03	 5.254E+03	 4.311E+01	 7.307E+02
  17.125	 0.000E+00	-8.025E-01	 4.481E+00	 2.624E+02	 0.000E+00	 1.709E+03	 8.947E+03	 4.050E-01	 8.236E+00	 0.000E+00	 0.000E+00	 0.000E+00	 3.060E+00	 0.000E+00	 9.317E+01	 0.000E+00	 0.000E+00	 0.000E+00	 4.367E+00	 3.364E+01	 4.989E+03	 4.155E+03	 5.251E+03	 4.311E+01	 7.306E+02
  17.137	 0.000E+00	-7.972E-01	 4.481E+00	 2.625E+02	 0.000E+00	 1.666E+03	 8.948E+03	 4.014E-01	 8.144E+00	 0.000E+00	 0.000E+00	 0.000E+00	 3.031E+00	 0.000E+00	 9.317E+01	 0.000E+00	 0.000E+00	 0.000E+00	 4.367E+00	 3.364E+01	 4.989E+03	 4.153E+03	 5.248E+03	 4.311E+01	 7.306E+02
  17.150	 0.000E+00	-7.917E-01	 4.482E+00	 2.626E+02	 0.000E+00	 1.621E+03	 8.949E+03	 3.972E-01	 8.036E+00	 0.000E+00	 0.000E+00	 0.000E+00	 2.997E+00	 0.000E+00	 9.318E+01	 0.000E+00	 0.000E+00	 0.000E+00	 4.367E+00	 3.364E+01	 4.989E+03	 4.151E+03	 5.245E+03	 4.311E+01	 7.305E+02
  17.163	 0.000E+00	-7.859E-01	 4.482E+00	 2.627E+02	 0.000E+00	 1.574E+03	 8.949E+03	 3.927E-01	 7.918E+00	 0.000E+00	 0.000E+00	 0.000E+00	 2.960E+00	 0.000E+00	 9.319E+01	 0.000E+00	 0.000E+00	 0.000E+00	 4.367E+00	 3.364E+01	 4.989E+03	 4.150E+03	 5.243E+03	 4.311E+01	 7.304E+02
  17.175	 0.000E+00	-7.798E-01	 4.483E+00	 2.627E+02	 0.000E+00	 1.526E+03	 8.950E+03	 3.876E-01	 7.784E+00	 0.000E+00	 0.000E+00	 0.000E+00	 2.917E+00	 0.000E+00	 9.320E+01	 0.000E+00	 0.000E+00	 0.000E+00	 4.367E+00	 3.365E+01	 4.989E+03	 4.149E+03	 5.242E+03	 4.312E+01	 7.303E+02
  17.188	 0.000E+00	-7.734E-01	 4.483E+00	 2.628E+02	 0.000E+00	 1.475E+03	 8.950E+03	 3.821E-01	 7.639E+00	 0.000E+00	 0.000E+00	 0.000E+00	 2.871E+00	 0.000E+00	 9.322E+01	 0.000E+00	 0.000E+00	 0.000E+00	 4.368E+00	 3.365E+01	 4.989E+03	 4.148E+03	 5.241E+03	 4.312E+01	 7.302E+02
  17.200	 0.000E+00	-7.667E-01	 4.484E+00	 2.629E+02	 0.000E+00	 1.423E+03	 8.951E+03	 3.759E-01	 7.477E+00	 0.000E+00	 0.000E+00	 0.000E+00	 2.819E+00	 0.000E+00	 9.324E+01	 0.000E+00	 0.000E+00	 0.000E+00	 4.368E+00	 3.366E+01	 4.988E+03	 4.148E+03	 5.241E+03	 4.312E+01	 7.301E+02
  17.213	 0.000E+00	-7.597E-01	 4.484E+00	 2.629E+02	 0.000E+00	 1.369E+03	 8.951E+03	 3.694E-01	 7.305E+00	 0.000E+00	 0.000E+00	 0.000E+00	 2.764E+00	 0.000E+00	 9.326E+01	 0.000E+00	 0.000E+00	 0.000E+00	 4.368E+00	 3.366E+01	 4.988E+03	 4.149E+03	 5.241E+03	 4.312E+01	 7.300E+02
  17.225	 0.000E+00	-7.523E-01	 4.485E+00	 2.630E+02	 0.000E+00	 1.313E+03	 8.951E+03	 3.622E-01	 7.115E+00	 0.000E+00	 0.000E+00	 0.000E+00	 2.703E+00	 0.000E+00	 9.328E+01	 0.000E+00	 0.000E+00	 0.000E+00	 4.369E+00	 3.367E+01	 4.988E+03	 4.149E+03	 5.242E+03	 4.312E+01	 7.298E+02
  17.238	 0.000E+00	-7.447E-01	 4.485E+00	 2.630E+02	 0.000E+00	 1.255E+03	 8.951E+03	 3.547E-01	 6.915E+00	 0.000E+00	 0.000E+00	 0.000E+00	 2.639E+00	 0.000E+00	 9.331E+01	 0.000E+00	 0.000E+00	 0.000E+00	 4.370E+00	 3.368E+01	 4.988E+03	 4.151E+03	 5.244E+03	 4.313E+01	 7.297E+02
  17.250	 0.000E+00	-7.367E-01	 4.485E+00	 2.631E+02	 0.000E+00	 1.196E+03	 8.952E+03	 3.464E-01	 6.695E+00	 0.000E+00	 0.000E+00	 0.000E+00	 2.568E+00	 0.000E+00	 9.334E+01	 0.000E+00	 0.000E+00	 0.000E+00	 4.370E+00	 3.369E+01	 4.988E+03	 4.153E+03	 5.246E+03	 4.313E+01	 7.296E+02
  17.262	 0.000E+00	-7.285E-01	 4.486E+00	 2.632E+02	 0.000E+00	 1.134E+03	 8.952E+03	 3.378E-01	 6.467E+00	 0.000E+00	 0.000E+00	 0.000E+00	 2.494E+00	 0.000E+00	 9.337E+01	 0.000E+00	 0.000E+00	 0.000E+00	 4.371E+00	 3.370E+01	 4.988E+03	 4.155E+03	 5.249E+03	 4.313E+01	 7.294E+02
  17.275	 0.000E+00	-7.199E-01	 4.486E+00	 2.632E+02	 0.000E+00	 1.071E+03	 8.951E+03	 3.283E-01	 6.216E+00	 0.000E+00	 0.000E+00	 0.000E+00	 2.413E+00	 0.000E+00	 9.340E+01	 0.000E+00	 0.000E+00	 0.000E+00	 4.372E+00	 3.371E+01	 4.988E+03	 4.158E+03	 5.253E+03	 4.313E+01	 7.292E+02
  17.288	 0.000E+00	-7.111E-01	 4.486E+00	 2.633E+02	 0.000E+00	 1.006E+03	 8.951E+03	 3.186E-01	 5.957E+00	 0.000E+00	 0.000E+00	 0.000E+00	 2.330E+00	 0.000E+00	 9.343E+01	 0.000E+00	 0.000E+00	 0.000E+00	 4.373E+00	 3.372E+01	 4.988E+03	 4.161E+03	 5.256E+03	 4.313E+01	 7.291E+02
  17.300	 0.000E+00	-7.019E-01	 4.487E+00	 2.633E+02	 0.000E+00	 9.400E+02	 8.951E+03	 3.080E-01	 5.676E+00	 0.000E+00	 0.000E+00	 0.000E+00	 2.238E+00	 0.000E+00	 9.347E+01	 0.000E+00	 0.000E+00	 0.000E+00	 4.374E+00	 3.374E+01	 4.988E+03	 4.165E+03	 5.261E+03	 4.314E+01	 7.289E+02
  17.312	 0.000E+00	-6.924E-01	 4.487E+00	 2.633E+02	 0.000E+00	 8.720E+02	 8.951E+03	 2.972E-01	 5.386E+00	 0.000E+00	 0.000E+00	 0.000E+00	 2.145E+00	 0.000E+00	 9.351E+01	 0.000E+00	 0.000E+00	 0.000E+00	 4.375E+00	 3.375E+01	 4.988E+03	 4.168E+03	 5.265E+03	 4.314E+01	 7.287E+02
  17.325	 0.000E+00	-6.827E-01	 4.487E+00	 2.634E+02	 0.000E+00	 8.026E+02	 8.950E+03	 2.855E-01	 5.073E+00	 0.000E+00	 0.000E+00	 0.000E+00	 2.043E+00	 0.000E+00	 9.354E+01	 0.000E+00	 0.000E+00	 0.000E+00	 4.376E+00	 3.376E+01	 4.988E+03	 4.172E+03	 5.270E+03	 4.314E+01	 7.285E+02
  17.338	 0.000E+00	-6.727E-01	 4.487E+00	 2.634E+02	 0.000E+00	 7.318E+02	 8.950E+03	 2.735E-01	 4.753E+00	 0.000E+00	 0.000E+00	 0.000E+00	 1.939E+00	 0.000E+00	 9.359E+01	 0.000E+00	 0.000E+00	 0.000E+00	 4.378E+00	 3.378E+01	 4.988E+03	 4.176E+03	 5.275E+03	 4.314E+01	 7.283E+02
  17.350	 0.000E+00	-6.625E-01	 4.487E+00	 2.635E+02	 0.000E+00	 6.598E+02	 8.949E+03	 2.607E-01	 4.411E+00	 0.000E+00	 0.000E+00	 0.000E+00	 1.828E+00	 0.000E+00	 9.363E+01	 0.000E+00	 0.000E+00	 0.000E+00	 4.379E+00	 3.379E+01	 4.988E+03	 4.180E+03	 5.280E+03	 4.314E+01	 7.281E+02
  17.363	 0.000E+00	-6.521E-01	 4.487E+00	 2.635E+02	 0.000E+00	 5.866E+02	 8.948E+03	 2.477E-01	 4.062E+00	 0.000E+00	 0.000E+00	 0.000E+00	 1.715E+00	 0.000E+00	 9.367E+01	 0.000E+00	 0.000E+00	 0.000E+00	 4.381E+00	 3.381E+01	 4.989E+03	 4.185E+03	 5.285E+03	 4.315E+01	 7.279E+02
  17.375	 0.000E+00	-6.414E-01	 4.487E+00	 2.635E+02	 0.000E+00	 5.124E+02	 8.947E+03	 2.339E-01	 3.693E+00	 0.000E+00	 0.000E+00	 0.000E+00	 1.594E+00	 0.000E+00	 9.371E+01	 0.000E+00	 0.000E+00	 0.000E+00	 4.382E+00	 3.383E+01	 4.989E+03	 4.189E+03	 5.291E+03	 4.315E+01	 7.277E+02
  17.387	 0.000E+00	-6.306E-01	 4.487E+00	 2.635E+02	 0.000E+00	 4.374E+02	 8.946E+03	 2.200E-01	 3.319E+00	 0.000E+00	 0.000E+00	 0.000E+00	 1.473E+00	 0.000E+00	 9.376E+01	 0.000E+00	 0.000E+00	 0.000E+00	 4.384E+00	 3.384E+01	 4.989E+03	 4.192E+03	 5.295E+03	 4.315E+01	 7.275E+02
  17.400	 0.000E+00	-6.196E-01	 4.487E+00	 2.635E+02	 0.000E+00	 3.616E+02	 8.945E+03	 2.053E-01	 2.928E+00	 0.000E+00	 0.000E+00	 0.000E+00	 1.345E+00	 0.000E+00	 9.380E+01	 0.000E+00	 0.000E+00	 0.000E+00	 4.386E+00	 3.386E+01	 4.989E+03	 4.196E+03	 5.300E+03	 4.315E+01	 7.273E+02
  17.413	 0.000E+00	-6.084E-01	 4.487E+00	 2.635E+02	 0.000E+00	 2.853E+02	 8.943E+03	 1.908E-01	 2.535E+00	 0.000E+00	 0.000E+00	 0.000E+00	 1.218E+00	 0.000E+00	 9.385E+01	 0.000E+00	 0.000E+00	 0.000E+00	 4.388E+00	 3.388E+01	 4.990E+03	 4.200E+03	 5.305E+03	 4.315E+01	 7.271E+02
  17.425	 0.000E+00	-5.972E-01	 4.486E+00	 2.635E+02	 0.000E+00	 2.086E+02	 8.942E+03	 1.755E-01	 2.128E+00	 0.000E+00	 0.000E+00	 0.000E+00	 1.084E+00	 0.000E+00	 9.390E+01	 0.000E+00	 0.000E+00	 0.000E+00	 4.389E+00	 3.390E+01	 4.990E+03	 4.203E+03	 5.309E+03	 4.315E+01	 7.269E+02
  17.438	 0.000E+00	-5.859E-01	 4.486E+00	 2.635E+02	 0.000E+00	 1.318E+02	 8.940E+03	 1.604E-01	 1.720E+00	 0.000E+00	 0.000E+00	 0.000E+00	 9.518E-01	 0.000E+00	 9.395E+01	 0.000E+00	 0.000E+00	 0.000E+00	 4.391E+00	 3.392E+01	 4.990E+03	 4.206E+03	 5.312E+03	 4.316E+01	 7.267E+02
  17.450	 0.000E+00	-5.746E-01	 4.486E+00	 2.635E+02	 0.000E+00	 5.484E+01	 8.938E+03	 1.448E-01	 1.304E+00	 0.000E+00	 0.000E+00	 0.000E+00	 8.155E-01	 0.000E+00	 9.399E+01	 0.000E+00	 0.000E+00	 0.000E+00	 4.393E+00	 3.393E+01	 4.991E+03	 4.208E+03	 5.315E+03	 4.316E+01	 7.264E+02
  17.463	 0.000E+00	-5.633E-01	 4.485E+00	 2.635E+02	 0.000E+00	-2.189E+01	 8.936E+03	 1.295E-01	 8.910E-01	 0.000E+00	 0.000E+00	 0.000E+00	 6.810E-01	 0.000E+00	 9.404E+01	 0.000E+00	 0.000E+00	 0.000E+00	 4.395E+00	 3.395E+01	 4.991E+03	 4.210E+03	 5.318E+03	 4.316E+01	 7.262E+02
  17.475	 0.000E+00	-5.520E-01	 4.484E+00	 2.635E+02	 0.000E+00	-9.839E+01	 8.934E+03	 1.139E-01	 4.737E-01	 0.000E+00	 0.000E+00	 0.000E+00	 5.443E-01	 0.000E+00	 9.408E+01	 0.000E+00	 0.000E+00	 0.000E+00	 4.397E+00	 3.397E+01	 4.992E+03	 4.211E+03	 5.320E+03	 4.316E+01	 7.260E+02
  17.488	 0.000E+00	-5.407E-01	 4.484E+00	 2.634E+02	 0.000E+00	-1.743E+02	 8.932E+03	 9.866E-02	 6.296E-02	 0.000E+00	 0.000E+00	 0.000E+00	 4.106E-01	 0.000E+00	 9.413E+01	 0.000E+00	 0.000E+00	 0.000E+00	 4.399E+00	 3.399E+01	 4.992E+03	 4.212E+03	 5.321E+03	 4.316E+01	 7.258E+02
  17.500	 0.000E+00	-5.296E-01	 4.483E+00	 2.634E+02	 0.000E+00	-2.496E+02	 8.929E+03	 8.333E-02	-3.469E-01	 0.000E+00	 0.000E+00	 0.000E+00	 2.764E-01	 0.000E+00	 9.417E+01	 0.000E+00	 0.000E+00	 0.000E+00	 4.400E+00	 3.400E+01	 4.992E+03	 4.213E+03	 5.322E+03	 4.316E+01	 7.256E+02
  17.512	 0.000E+00	-5.186E-01	 4.482E+00	 2.634E+02	 0.000E+00	-3.240E+02	 8.927E+03	 6.848E-02	-7.472E-01	 0.000E+00	 0.000E+00	 0.000E+00	 1.461E-01	 0.000E+00	 9.422E+01	 0.000E+00	 0.000E+00	 0.000E+00	 4.403E+00	 3.403E+01	 4.993E+03	 4.213E+03	 5.322E+03	 4.316E+01	 7.254E+02
  17.525	 0.000E+00	-5.078E-01	 4.481E+00	 2.633E+02	 0.000E+00	-3.974E+02	 8.924E+03	 5.372E-02	-1.142E+00	 0.000E+00	 0.000E+00	 0.000E+00	 1.687E-02	 0.000E+00	 9.425E+01	 0.000E+00	 0.000E+00	 0.000E+00	 4.404E+00	 3.404E+01	 4.993E+03	 4.213E+03	 5.321E+03	 4.317E+01	 7.252E+02
  17.538	 0.000E+00	-4.971E-01	 4.480E+00	 2.633E+02	 0.000E+00	-4.695E+02	 8.921E+03	 3.952E-02	-1.524E+00	 0.000E+00	 0.000E+00	 0.000E+00	-1.076E-01	 0.000E+00	 9.429E+01	 0.000E+00	 0.000E+00	 0.000E+00	 4.406E+00	 3.406E+01	 4.994E+03	 4.212E+03	 5.320E+03	 4.317E+01	 7.250E+02
  17.550	 0.000E+00	-4.867E-01	 4.479E+00	 2.632E+02	 0.000E+00	-5.404E+02	 8.918E+03	 2.559E-02	-1.896E+00	 0.000E+00	 0.000E+00	 0.000E+00	-2.294E-01	 0.000E+00	 9.432E+01	 0.000E+00	 0.000E+00	 0.000E+00	 4.407E+00	 3.407E+01	 4.994E+03	 4.210E+03	 5.319E+03	 4.317E+01	 7.248E+02
  17.562	 0.000E+00	-4.765E-01	 4.478E+00	 2.632E+02	 0.000E+00	-6.096E+02	 8.915E+03	 1.228E-02	-2.254E+00	 0.000E+00	 0.000E+00	 0.000E+00	-3.459E-01	 0.000E+00	 9.436E+01	 0.000E+00	 0.000E+00	 0.000E+00	 4.409E+00	 3.409E+01	 4.994E+03	 4.208E+03	 5.316E+03	 4.317E+01	 7.246E+02
  17.575	 0.000E+00	-4.666E-01	 4.476E+00	 2.631E+02	 0.000E+00	-6.773E+02	 8.911E+03	-6.128E-04	-2.599E+00	 0.000E+00	 0.000E+00	 0.000E+00	-4.585E-01	 0.000E+00	 9.438E+01	 0.000E+00	 0.000E+00	 0.000E+00	 4.410E+00	 3.409E+01	 4.995E+03	 4.206E+03	 5.313E+03	 4.317E+01	 7.245E+02
  17.588	 0.000E+00	-4.570E-01	 4.475E+00	 2.630E+02	 0.000E+00	-7.430E+02	 8.908E+03	-1.285E-02	-2.927E+00	 0.000E+00	 0.000E+00	 0.000E+00	-5.654E-01	 0.000E+00	 9.441E+01	 0.000E+00	 0.000E+00	 0.000E+00	 4.412E+00	 3.411E+01	 4.995E+03	 4.203E+03	 5.310E+03	 4.317E+01	 7.243E+02
  17.600	 0.000E+00	-4.477E-01	 4.474E+00	 2.629E+02	 0.000E+00	-8.070E+02	 8.904E+03	-2.453E-02	-3.239E+00	 0.000E+00	 0.000E+00	 0.000E+00	-6.671E-01	 0.000E+00	 9.443E+01	 0.000E+00	 0.000E+00	 0.000E+00	 4.412E+00	 3.411E+01	 4.995E+03	 4.200E+03	 5.306E+03	 4.317E+01	 7.242E+02
  17.613	 0.000E+00	-4.388E-01	 4.472E+00	 2.628E+02	 0.000E+00	-8.687E+02	 8.900E+03	-3.556E-02	-3.534E+00	 0.000E+00	 0.000E+00	 0.000E+00	-7.632E-01	 0.000E+00	 9.445E+01	 0.000E+00	 0.000E+00	 0.000E+00	 4.414E+00	 3.413E+01	 4.995E+03	 4.197E+03	 5.302E+03	 4.317E+01	 7.240E+02
  17.625	 0.000E+00	-4.302E-01	 4.471E+00	 2.628E+02	 0.000E+00	-9.285E+02	 8.896E+03	-4.591E-02	-3.810E+00	 0.000E+00	 0.000E+00	 0.000E+00	-8.530E-01	 0.000E+00	 9.446E+01	 0.000E+00	 0.000E+00	 0.000E+00	 4.414E+00	 3.413E+01	 4.996E+03	 4.193E+03	 5.298E+03	 4.317E+01	 7.239E+02
  17.637	 0.000E+00	-4.220E-01	 4.469E+00	 2.626E+02	 0.000E+00	-9.858E+02	 8.892E+03	-5.562E-02	-4.069E+00	 0.000E+00	 0.000E+00	 0.000E+00	-9.374E-01	 0.000E+00	 9.448E+01	 0.000E+00	 0.000E+00	 0.000E+00	 4.415E+00	 3.414E+01	 4.996E+03	 4.190E+03	 5.293E+03	 4.317E+01	 7.237E+02
  17.650	 0.000E+00	-4.142E-01	 4.468E+00	 2.625E+02	 0.000E+00	-1.041E+03	 8.888E+03	-6.454E-02	-4.306E+00	 0.000E+00	 0.000E+00	 0.000E+00	-1.014E+00	 0.000E+00	 9.448E+01	 0.000E+00	 0.000E+00	 0.000E+00	 4.415E+00	 3.414E+01	 4.996E+03	 4.186E+03	 5.288E+03	 4.317E+01	 7.236E+02
  17.663	 0.000E+00	-4.067E-01	 4.466E+00	 2.624E+02	 0.000E+00	-1.094E+03	 8.884E+03	-7.286E-02	-4.528E+00	 0.000E+00	 0.000E+00	 0.000E+00	-1.086E+00	 0.000E+00	 9.449E+01	 0.000E+00	 0.000E+00	 0.000E+00	 4.416E+00	 3.415E+01	 4.996E+03	 4.182E+03	 5.283E+03	 4.318E+01	 7.235E+02
  17.675	 0.000E+00	-3.997E-01	 4.464E+00	 2.623E+02	 0.000E+00	-1.144E+03	 8.879E+03	-8.031E-02	-4.725E+00	 0.000E+00	 0.000E+00	 0.000E+00	-1.150E+00	 0.000E+00	 9.449E+01	 0.000E+00	 0.000E+00	 0.000E+00	 4.416E+00	 3.415E+01	 4.996E+03	 4.178E+03	 5.278E+03	 4.318E+01	 7.234E+02
  17.688	 0.000E+00	-3.930E-01	 4.462E+00	 2.622E+02	 0.000E+00	-1.192E+03	 8.875E+03	-8.720E-02	-4.908E+00	 0.000E+00	 0.000E+00	 0.000E+00	-1.209E+00	 0.000E+00	 9.449E+01	 0.000E+00	 0.000E+00	 0.000E+00	 4.416E+00	 3.415E+01	 4.996E+03	 4.175E+03	 5.273E+03	 4.318E+01	 7.233E+02
  17.700	 0.000E+00	-3.868E-01	 4.461E+00	 2.620E+02	 0.000E+00	-1.237E+03	 8.870E+03	-9.315E-02	-5.064E+00	 0.000E+00	 0.000E+00	 0.000E+00	-1.260E+00	 0.000E+00	 9.448E+01	 0.000E+00	 0.000E+00	 0.000E+00	 4.416E+00	 3.415E+01	 4.996E+03	 4.171E+03	 5.269E+03	 4.318E+01	 7.233E+02
  17.713	 0.000E+00	-3.810E-01	 4.459E+00	 2.619E+02	 0.000E+00	-1.280E+03	 8.865E+03	-9.858E-02	-5.207E+00	 0.000E+00	 0.000E+00	 0.000E+00	-1.306E+00	 0.000E+00	 9.448E+01	 0.000E+00	 0.000E+00	 0.000E+00	 4.416E+00	 3.415E+01	 4.996E+03	 4.167E+03	 5.264E+03	 4.318E+01	 7.232E+02
  17.725	 0.000E+00	-3.756E-01	 4.457E+00	 2.618E+02	 0.000E+00	-1.321E+03	 8.860E+03	-1.030E-01	-5.322E+00	 0.000E+00	 0.000E+00	 0.000E+00	-1.343E+00	 0.000E+00	 9.446E+01	 0.000E+00	 0.000E+00	 0.000E+00	 4.415E+00	 3.414E+01	 4.995E+03	 4.164E+03	 5.260E+03	 4.318E+01	 7.231E+02
  17.738	 0.000E+00	-3.706E-01	 4.455E+00	 2.616E+02	 0.000E+00	-1.359E+03	 8.855E+03	-1.070E-01	-5.425E+00	 0.000E+00	 0.000E+00	 0.000E+00	-1.376E+00	 0.000E+00	 9.445E+01	 0.000E+00	 0.000E+00	 0.000E+00	 4.415E+00	 3.414E+01	 4.995E+03	 4.161E+03	 5.256E+03	 4.318E+01	 7.231E+02
  17.750	 0.000E+00	-3.660E-01	 4.453E+00	 2.615E+02	 0.000E+00	-1.394E+03	 8.851E+03	-1.099E-01	-5.500E+00	 0.000E+00	 0.000E+00	 0.000E+00	-1.400E+00	 0.000E+00	 9.443E+01	 0.000E+00	 0.000E+00	 0.000E+00	 4.414E+00	 3.414E+01	 4.995E+03	 4.159E+03	 5.253E+03	 4.318E+01	 7.230E+02
  17.762	 0.000E+00	-3.617E-01	 4.451E+00	 2.613E+02	 0.000E+00	-1.427E+03	 8.845E+03	-1.124E-01	-5.563E+00	 0.000E+00	 0.000E+00	 0.000E+00	-1.420E+00	 0.000E+00	 9.441E+01	 0.000E+00	 0.000E+00	 0.000E+00	 4.413E+00	 3.413E+01	 4.995E+03	 4.157E+03	 5.250E+03	 4.318E+01	 7.230E+02
  17.775	 0.000E+00	-3.579E-01	 4.449E+00	 2.612E+02	 0.000E+00	-1.458E+03	 8.840E+03	-1.139E-01	-5.599E+00	 0.000E+00	 0.000E+00	 0.000E+00	-1.431E+00	 0.000E+00	 9.438E+01	 0.000E+00	 0.000E+00	 0.000E+00	 4.412E+00	 3.412E+01	 4.995E+03	 4.155E+03	 5.248E+03	 4.318E+01	 7.230E+02
  17.788	 0.000E+00	-3.544E-01	 4.448E+00	 2.610E+02	 0.000E+00	-1.487E+03	 8.835E+03	-1.150E-01	-5.624E+00	 0.000E+00	 0.000E+00	 0.000E+00	-1.438E+00	 0.000E+00	 9.436E+01	 0.000E+00	 0.000E+00	 0.000E+00	 4.411E+00	 3.411E+01	 4.994E+03	 4.154E+03	 5.246E+03	 4.318E+01	 7.229E+02
  17.800	 0.000E+00	-3.513E-01	 4.446E+00	 2.608E+02	 0.000E+00	-1.514E+03	 8.830E+03	-1.151E-01	-5.621E+00	 0.000E+00	 0.000E+00	 0.000E+00	-1.436E+00	 0.000E+00	 9.433E+01	 0.000E+00	 0.000E+00	 0.000E+00	 4.409E+00	 3.410E+01	 4.994E+03	 4.153E+03	 5.245E+03	 4.318E+01	 7.229E+02
  17.812	 0.000E+00	-3.485E-01	 4.444E+00	 2.607E+02	 0.000E+00	-1.539E+03	 8.825E+03	-1.148E-01	-5.610E+00	 0.000E+00	 0.000E+00	 0.000E+00	-1.432E+00	 0.000E+00	 9.430E+01	 0.000E+00	 0.000E+00	 0.000E+00	 4.408E+00	 3.409E+01	 4.994E+03	 4.153E+03	 5.244E+03	 4.319E+01	 7.229E+02
  17.825	 0.000E+00	-3.460E-01	 4.442E+00	 2.605E+02	 0.000E+00	-1.562E+03	 8.820E+03	-1.136E-01	-5.572E+00	 0.000E+00	 0.000E+00	 0.000E+00	-1.418E+00	 0.000E+00	 9.427E+01	 0.000E+00	 0.000E+00	 0.000E+00	 4.406E+00	 3.408E+01	 4.994E+03	 4.153E+03	 5.244E+03	 4.319E+01	 7.229E+02
  17.838	 0.000E+00	-3.438E-01	 4.440E+00	 2.603E+02	 0.000E+00	-1.583E+03	 8.814E+03	-1.122E-01	-5.528E+00	 0.000E+00	 0.000E+00	 0.000E+00	-1.403E+00	 0.000E+00	 9.423E+01	 0.000E+00	 0.000E+00	 0.000E+00	 4.404E+00	 3.407E+01	 4.993E+03	 4.153E+03	 5.245E+03	 4.319E+01	 7.229E+02
  17.850	 0.000E+00	-3.419E-01	 4.438E+00	 2.601E+02	 0.000E+00	-1.602E+03	 8.809E+03	-1.098E-01	-5.461E+00	 0.000E+00	 0.000E+00	 0.000E+00	-1.380E+00	 0.000E+00	 9.420E+01	 0.000E+00	 0.000E+00	 0.000E+00	 4.402E+00	 3.405E+01	 4.993E+03	 4.154E+03	 5.246E+03	 4.319E+01	 7.229E+02
  17.863	 0.000E+00	-3.402E-01	 4.436E+00	 2.600E+02	 0.000E+00	-1.620E+03	 8.804E+03	-1.074E-01	-5.389E+00	 0.000E+00	 0.000E+00	 0.000E+00	-1.355E+00	 0.000E+00	 9.416E+01	 0.000E+00	 0.000E+00	 0.000E+00	 4.399E+00	 3.404E+01	 4.993E+03	 4.156E+03	 5.248E+03	 4.319E+01	 7.230E+02
  17.875	 0.000E+00	-3.388E-01	 4.435E+00	 2.598E+02	 0.000E+00	-1.638E+03	 8.799E+03	-1.041E-01	-5.297E+00	 0.000E+00	 0.000E+00	 0.000E+00	-1.324E+00	 0.000E+00	 9.412E+01	 0.000E+00	 0.000E+00	 0.000E+00	 4.397E+00	 3.402E+01	 4.993E+03	 4.158E+03	 5.250E+03	 4.319E+01	 7.230E+02
  17.887	 0.000E+00	-3.375E-01	 4.433E+00	 2.596E+02	 0.000E+00	-1.653E+03	 8.794E+03	-1.009E-01	-5.204E+00	 0.000E+00	 0.000E+00	 0.000E+00	-1.292E+00	 0.000E+00	 9.407E+01	 0.000E+00	 0.000E+00	 0.000E+00	 4.394E+00	 3.401E+01	 4.993E+03	 4.160E+03	 5.253E+03	 4.319E+01	 7.231E+02
  17.900	 0.000E+00	-3.364E-01	 4.431E+00	 2.595E+02	 0.000E+00	-1.669E+03	 8.789E+03	-9.702E-02	-5.095E+00	 0.000E+00	 0.000E+00	 0.000E+00	-1.255E+00	 0.000E+00	 9.403E+01	 0.000E+00	 0.000E+00	 0.000E+00	 4.392E+00	 3.399E+01	 4.993E+03	 4.163E+03	 5.256E+03	 4.319E+01	 7.231E+02
  17.913	 0.000E+00	-3.353E-01	 4.429E+00	 2.593E+02	 0.000E+00	-1.683E+03	 8.784E+03	-9.333E-02	-4.989E+00	 0.000E+00	 0.000E+00	 0.000E+00	-1.220E+00	 0.000E+00	 9.398E+01	 0.000E+00	 0.000E+00	 0.000E+00	 4.389E+00	 3.397E+01	 4.992E+03	 4.166E+03	 5.259E+03	 4.319E+01	 7.232E+02
  17.925	 0.000E+00	-3.344E-01	 4.428E+00	 2.591E+02	 0.000E+00	-1.697E+03	 8.779E+03	-8.913E-02	-4.871E+00	 0.000E+00	 0.000E+00	 0.000E+00	-1.180E+00	 0.000E+00	 9.394E+01	 0.000E+00	 0.000E+00	 0.000E+00	 4.386E+00	 3.395E+01	 4.992E+03	 4.169E+03	 5.263E+03	 4.320E+01	 7.233E+02
  17.938	 0.000E+00	-3.335E-01	 4.426E+00	 2.589E+02	 0.000E+00	-1.710E+03	 8.774E+03	-8.529E-02	-4.762E+00	 0.000E+00	 0.000E+00	 0.000E+00	-1.143E+00	 0.000E+00	 9.389E+01	 0.000E+00	 0.000E+00	 0.000E+00	 4.383E+00	 3.393E+01	 4.992E+03	 4.172E+03	 5.267E+03	 4.320E+01	 7.234E+02
  17.950	 0.000E+00	-3.326E-01	 4.424E+00	 2.588E+02	 0.000E+00	-1.724E+03	 8.770E+03	-8.113E-02	-4.645E+00	 0.000E+00	 0.000E+00	 0.000E+00	-1.103E+00	 0.000E+00	 9.384E+01	 0.000E+00	 0.000E+00	 0.000E+00	 4.380E+00	 3.392E+01	 4.992E+03	 4.176E+03	 5.272E+03	 4.320E+01	 7.235E+02
  17.963	 0.000E+00	-3.317E-01	 4.423E+00	 2.586E+02	 0.000E+00	-1.737E+03	 8.765E+03	-7.750E-02	-4.541E+00	 0.000E+00	 0.000E+00	 0.000E+00	-1.068E+00	 0.000E+00	 9.379E+01	 0.000E+00	 0.000E+00	 0.000E+00	 4.376E+00	 3.389E+01	 4.992E+03	 4.179E+03	 5.276E+03	 4.320E+01	 7.236E+02
  17.975	 0.000E+00	-3.307E-01	 4.421E+00	 2.585E+02	 0.000E+00	-1.751E+03	 8.761E+03	-7.373E-02	-4.435E+00	 0.000E+00	 0.000E+00	 0.000E+00	-1.032E+00	 0.000E+00	 9.375E+01	 0.000E+00	 0.000E+00	 0.000E+00	 4.373E+00	 3.388E+01	 4.992E+03	 4.183E+03	 5.280E+03	 4.320E+01	 7.238E+02
  17.988	 0.000E+00	-3.296E-01	 4.420E+00	 2.583E+02	 0.000E+00	-1.765E+03	 8.756E+03	-7.065E-02	-4.347E+00	 0.000E+00	 0.000E+00	 0.000E+00	-1.002E+00	 0.000E+00	 9.369E+01	 0.000E+00	 0.000E+00	 0.000E+00	 4.370E+00	 3.385E+01	 4.992E+03	 4.186E+03	 5.284E+03	 4.320E+01	 7.239E+02
  18.000	 0.000E+00	-3.284E-01	 4.418E+00	 2.582E+02	 0.000E+00	-1.779E+03	 8.752E+03	-6.762E-02	-4.261E+00	 0.000E+00	 0.000E+00	 0.000E+00	-9.730E-01	 0.000E+00	 9.365E+01	 0.000E+00	 0.000E+00	 0.000E+00	 4.367E+00	 3.384E+01	 4.993E+03	 4.190E+03	 5.289E+03	 4.320E+01	 7.241E+02
  18.012	 0.000E+00	-3.270E-01	 4.417E+00	 2.580E+02	 0.000E+00	-1.795E+03	 8.748E+03	-6.542E-02	-4.196E+00	 0.000E+00	 0.000E+00	 0.000E+00	-9.510E-01	 0.000E+00	 9.360E+01	 0.000E+00	 0.000E+00	 0.000E+00	 4.363E+00	 3.381E+01	 4.993E+03	 4.193E+03	 5.292E+03	 4.320E+01	 7.243E+02
  18.025	 0.000E+00	-3.254E-01	 4.416E+00	 2.579E+02	 0.000E+00	-1.811E+03	 8.744E+03	-6.343E-02	-4.138E+00	 0.000E+00	 0.000E+00	 0.000E+00	-9.311E-01	 0.000E+00	 9.356E+01	 0.000E+00	 0.000E+00	 0.000E+00	 4.360E+00	 3.380E+01	 4.993E+03	 4.195E+03	 5.296E+03	 4.321E+01	 7.245E+02
  18.038	 0.000E+00	-3.236E-01	 4.414E+00	 2.577E+02	 0.000E+00	-1.828E+03	 8.740E+03	-6.236E-02	-4.104E+00	 0.000E+00	 0.000E+00	 0.000E+00	-9.195E-01	 0.000E+00	 9.351E+01	 0.000E+00	 0.000E+00	 0.000E+00	 4.356E+00	 3.377E+01	 4.993E+03	 4.198E+03	 5.299E+03	 4.321E+01	 7.247E+02
  18.050	 0.000E+00	-3.216E-01	 4.413E+00	 2.576E+02	 0.000E+00	-1.846E+03	 8.736E+03	-6.164E-02	-4.081E+00	 0.000E+00	 0.000E+00	 0.000E+00	-9.111E-01	 0.000E+00	 9.347E+01	 0.000E+00	 0.000E+00	 0.000E+00	 4.353E+00	 3.376E+01	 4.993E+03	 4.200E+03	 5.302E+03	 4.321E+01	 7.249E+02
  18.062	 0.000E+00	-3.194E-01	 4.412E+00	 2.574E+02	 0.000E+00	-1.866E+03	 8.733E+03	-6.191E-02	-4.084E+00	 0.000E+00	 0.000E+00	 0.000E+00	-9.116E-01	 0.000E+00	 9.342E+01	 0.000E+00	 0.000E+00	 0.000E+00	 4.349E+00	 3.374E+01	 4.994E+03	 4.202E+03	 5.304E+03	 4.321E+01	 7.252E+02
  18.075	 0.000E+00	-3.168E-01	 4.410E+00	 2.573E+02	 0.000E+00	-1.886E+03	 8.729E+03	-6.263E-02	-4.100E+00	 0.000E+00	 0.000E+00	 0.000E+00	-9.162E-01	 0.000E+00	 9.339E+01	 0.000E+00	 0.000E+00	 0.000E+00	 4.346E+00	 3.373E+01	 4.994E+03	 4.204E+03	 5.306E+03	 4.321E+01	 7.254E+02
  18.088	 0.000E+00	-3.140E-01	 4.409E+00	 2.572E+02	 0.000E+00	-1.908E+03	 8.726E+03	-6.435E-02	-4.142E+00	 0.000E+00	 0.000E+00	 0.000E+00	-9.298E-01	 0.000E+00	 9.335E+01	 0.000E+00	 0.000E+00	 0.000E+00	 4.343E+00	 3.371E+01	 4.994E+03	 4.205E+03	 5.307E+03	 4.321E+01	 7.257E+02
  18.100	 0.000E+00	-3.109E-01	 4.408E+00	 2.570E+02	 0.000E+00	-1.932E+03	 8.722E+03	-6.658E-02	-4.199E+00	 0.000E+00	 0.000E+00	 0.000E+00	-9.481E-01	 0.000E+00	 9.332E+01	 0.000E+00	 0.000E+00	 0.000E+00	 4.340E+00	 3.369E+01	 4.994E+03	 4.205E+03	 5.308E+03	 4.321E+01	 7.259E+02
  18.113	 0.000E+00	-3.075E-01	 4.407E+00	 2.569E+02	 0.000E+00	-1.956E+03	 8.719E+03	-6.979E-02	-4.282E+00	 0.000E+00	 0.000E+00	 0.000E+00	-9.752E-01	 0.000E+00	 9.328E+01	 0.000E+00	 0.000E+00	 0.000E+00	 4.337E+00	 3.368E+01	 4.995E+03	 4.206E+03	 5.309E+03	 4.321E+01	 7.262E+02
  18.125	 0.000E+00	-3.038E-01	 4.406E+00	 2.568E+02	 0.000E+00	-1.983E+03	 8.715E+03	-7.352E-02	-4.380E+00	 0.000E+00	 0.000E+00	 0.000E+00	-1.007E+00	 0.000E+00	 9.326E+01	 0.000E+00	 0.000E+00	 0.000E+00	 4.334E+00	 3.367E+01	 4.995E+03	 4.205E+03	 5.308E+03	 4.321E+01	 7.265E+02
  18.137	 0.000E+00	-2.998E-01	 4.404E+00	 2.566E+02	 0.000E+00	-2.010E+03	 8.712E+03	-7.818E-02	-4.502E+00	 0.000E+00	 0.000E+00	 0.000E+00	-1.047E+00	 0.000E+00	 9.323E+01	 0.000E+00	 0.000E+00	 0.000E+00	 4.331E+00	 3.365E+01	 4.995E+03	 4.205E+03	 5.308E+03	 4.322E+01	 7.268E+02
  18.150	 0.000E+00	-2.956E-01	 4.403E+00	 2.565E+02	 0.000E+00	-2.039E+03	 8.709E+03	-8.335E-02	-4.640E+00	 0.000E+00	 0.000E+00	 0.000E+00	-1.092E+00	 0.000E+00	 9.321E+01	 0.000E+00	 0.000E+00	 0.000E+00	 4.329E+00	 3.364E+01	 4.995E+03	 4.204E+03	 5.306E+03	 4.322E+01	 7.271E+02
  18.163	 0.000E+00	-2.910E-01	 4.402E+00	 2.564E+02	 0.000E+00	-2.069E+03	 8.706E+03	-8.936E-02	-4.799E+00	 0.000E+00	 0.000E+00	 0.000E+00	-1.145E+00	 0.000E+00	 9.318E+01	 0.000E+00	 0.000E+00	 0.000E+00	 4.326E+00	 3.363E+01	 4.995E+03	 4.202E+03	 5.304E+03	 4.322E+01	 7.274E+02
  18.175	 0.000E+00	-2.862E-01	 4.401E+00	 2.563E+02	 0.000E+00	-2.101E+03	 8.703E+03	-9.585E-02	-4.972E+00	 0.000E+00	 0.000E+00	 0.000E+00	-1.202E+00	 0.000E+00	 9.317E+01	 0.000E+00	 0.000E+00	 0.000E+00	 4.324E+00	 3.362E+01	 4.996E+03	 4.201E+03	 5.302E+03	 4.322E+01	 7.277E+02
  18.188	 0.000E+00	-2.812E-01	 4.400E+00	 2.562E+02	 0.000E+00	-2.133E+03	 8.699E+03	-1.031E-01	-5.165E+00	 0.000E+00	 0.000E+00	 0.000E+00	-1.265E+00	 0.000E+00	 9.314E+01	 0.000E+00	 0.000E+00	 0.000E+00	 4.321E+00	 3.361E+01	 4.996E+03	 4.199E+03	 5.300E+03	 4.322E+01	 7.281E+02
  18.200	 0.000E+00	-2.759E-01	 4.398E+00	 2.561E+02	 0.000E+00	-2.167E+03	 8.696E+03	-1.107E-01	-5.369E+00	 0.000E+00	 0.000E+00	 0.000E+00	-1.332E+00	 0.000E+00	 9.313E+01	 0.000E+00	 0.000E+00	 0.000E+00	 4.319E+00	 3.361E+01	 4.996E+03	 4.196E+03	 5.296E+03	 4.322E+01	 7.284E+02
  18.213	 0.000E+00	-2.704E-01	 4.397E+00	 2.560E+02	 0.000E+00	-2.202E+03	 8.693E+03	-1.189E-01	-5.590E+00	 0.000E+00	 0.000E+00	 0.000E+00	-1.405E+00	 0.000E+00	 9.312E+01	 0.000E+00	 0.000E+00	 0.000E+00	 4.317E+00	 3.360E+01	 4.996E+03	 4.194E+03	 5.293E+03	 4.322E+01	 7.288E+02
  18.225	 0.000E+00	-2.646E-01	 4.396E+00	 2.558E+02	 0.000E+00	-2.238E+03	 8.690E+03	-1.275E-01	-5.821E+00	 0.000E+00	 0.000E+00	 0.000E+00	-1.481E+00	 0.000E+00	 9.311E+01	 0.000E+00	 0.000E+00	 0.000E+00	 4.315E+00	 3.360E+01	 4.996E+03	 4.191E+03	 5.290E+03	 4.322E+01	 7.291E+02
  18.238	 0.000E+00	-2.588E-01	 4.394E+00	 2.557E+02	 0.000E+00	-2.274E+03	 8.686E+03	-1.366E-01	-6.065E+00	 0.000E+00	 0.000E+00	 0.000E+00	-1.562E+00	 0.000E+00	 9.310E+01	 0.000E+00	 0.000E+00	 0.000E+00	 4.313E+00	 3.359E+01	 4.996E+03	 4.188E+03	 5.286E+03	 4.322E+01	 7.295E+02
  18.250	 0.000E+00	-2.527E-01	 4.393E+00	 2.556E+02	 0.000E+00	-2.311E+03	 8.683E+03	-1.460E-01	-6.317E+00	 0.000E+00	 0.000E+00	 0.000E+00	-1.645E+00	 0.000E+00	 9.309E+01	 0.000E+00	 0.000E+00	 0.000E+00	 4.312E+00	 3.359E+01	 4.996E+03	 4.185E+03	 5.282E+03	 4.322E+01	 7.299E+02
  18.262	 0.000E+00	-2.466E-01	 4.392E+00	 2.555E+02	 0.000E+00	-2.349E+03	 8.680E+03	-1.558E-01	-6.580E+00	 0.000E+00	 0.000E+00	 0.000E+00	-1.731E+00	 0.000E+00	 9.308E+01	 0.000E+00	 0.000E+00	 0.000E+00	 4.310E+00	 3.358E+01	 4.996E+03	 4.182E+03	 5.278E+03	 4.322E+01	 7.303E+02
  18.275	 0.000E+00	-2.403E-01	 4.390E+00	 2.554E+02	 0.000E+00	-2.387E+03	 8.676E+03	-1.657E-01	-6.848E+00	 0.000E+00	 0.000E+00	 0.000E+00	-1.819E+00	 0.000E+00	 9.308E+01	 0.000E+00	 0.000E+00	 0.000E+00	 4.309E+00	 3.358E+01	 4.996E+03	 4.179E+03	 5.274E+03	 4.322E+01	 7.307E+02
  18.288	 0.000E+00	-2.340E-01	 4.389E+00	 2.553E+02	 0.000E+00	-2.425E+03	 8.673E+03	-1.759E-01	-7.123E+00	 0.000E+00	 0.000E+00	 0.000E+00	-1.910E+00	 0.000E+00	 9.307E+01	 0.000E+00	 0.000E+00	 0.000E+00	 4.307E+00	 3.358E+01	 4.996E+03	 4.176E+03	 5.270E+03	 4.322E+01	 7.311E+02
  18.300	 0.000E+00	-2.276E-01	 4.387E+00	 2.552E+02	 0.000E+00	-2.463E+03	 8.670E+03	-1.862E-01	-7.401E+00	 0.000E+00	 0.000E+00	 0.000E+00	-2.002E+00	 0.000E+00	 9.307E+01	 0.000E+00	 0.000E+00	 0.000E+00	 4.306E+00	 3.357E+01	 4.996E+03	 4.173E+03	 5.266E+03	 4.322E+01	 7.315E+02
  18.312	 0.000E+00	-2.212E-01	 4.385E+00	 2.551E+02	 0.000E+00	-2.501E+03	 8.666E+03	-1.967E-01	-7.684E+00	 0.000E+00	 0.000E+00	 0.000E+00	-2.095E+00	 0.000E+00	 9.307E+01	 0.000E+00	 0.000E+00	 0.000E+00	 4.305E+00	 3.357E+01	 4.996E+03	 4.170E+03	 5.262E+03	 4.322E+01	 7.319E+02
  18.325	 0.000E+00	-2.148E-01	 4.384E+00	 2.550E+02	 0.000E+00	-2.539E+03	 8.662E+03	-2.072E-01	-7.967E+00	 0.000E+00	 0.000E+00	 0.000E+00	-2.188E+00	 0.000E+00	 9.306E+01	 0.000E+00	 0.000E+00	 0.000E+00	 4.303E+00	 3.357E+01	 4.996E+03	 4.167E+03	 5.259E+03	 4.323E+01	 7.324E+02
  18.338	 0.000E+00	-2.084E-01	 4.382E+00	 2.548E+02	 0.000E+00	-2.576E+03	 8.659E+03	-2.178E-01	-8.253E+00	 0.000E+00	 0.000E+00	 0.000E+00	-2.283E+00	 0.000E+00	 9.306E+01	 0.000E+00	 0.000E+00	 0.000E+00	 4.302E+00	 3.357E+01	 4.995E+03	 4.165E+03	 5.256E+03	 4.323E+01	 7.328E+02
  18.350	 0.000E+00	-2.021E-01	 4.380E+00	 2.547E+02	 0.000E+00	-2.612E+03	 8.655E+03	-2.283E-01	-8.535E+00	 0.000E+00	 0.000E+00	 0.000E+00	-2.376E+00	 0.000E+00	 9.305E+01	 0.000E+00	 0.000E+00	 0.000E+00	 4.301E+00	 3.357E+01	 4.995E+03	 4.163E+03	 5.253E+03	 4.323E+01	 7.332E+02
  18.363	 0.000E+00	-1.959E-01	 4.378E+00	 2.546E+02	 0.000E+00	-2.647E+03	 8.651E+03	-2.387E-01	-8.817E+00	 0.000E+00	 0.000E+00	 0.000E+00	-2.469E+00	 0.000E+00	 9.305E+01	 0.000E+00	 0.000E+00	 0.000E+00	 4.300E+00	 3.357E+01	 4.995E+03	 4.161E+03	 5.250E+03	 4.323E+01	 7.337E+02
  18.375	 0.000E+00	-1.899E-01	 4.377E+00	 2.545E+02	 0.000E+00	-2.682E+03	 8.647E+03	-2.489E-01	-9.092E+00	 0.000E+00	 0.000E+00	 0.000E+00	-2.559E+00	 0.000E+00	 9.304E+01	 0.000E+00	 0.000E+00	 0.000E+00	 4.299E+00	 3.357E+01	 4.995E+03	 4.160E+03	 5.248E+03	 4.323E+01	 7.342E+02
  18.387	 0.000E+00	-1.840E-01	 4.375E+00	 2.544E+02	 0.000E+00	-2.715E+03	 8.643E+03	-2.589E-01	-9.363E+00	 0.000E+00	 0.000E+00	 0.000E+00	-2.649E+00	 0.000E+00	 9.304E+01	 0.000E+00	 0.000E+00	 0.000E+00	 4.298E+00	 3.357E+01	 4.995E+03	 4.158E+03	 5.247E+03	 4.323E+01	 7.346E+02
  18.400	 0.000E+00	-1.783E-01	 4.373E+00	 2.542E+02	 0.000E+00	-2.746E+03	 8.639E+03	-2.686E-01	-9.624E+00	 0.000E+00	 0.000E+00	 0.000E+00	-2.735E+00	 0.000E+00	 9.303E+01	 0.000E+00	 0.000E+00	 0.000E+00	 4.297E+00	 3.356E+01	 4.994E+03	 4.158E+03	 5.245E+03	 4.323E+01	 7.351E+02
  18.413	 0.000E+00	-1.728E-01	 4.371E+00	 2.541E+02	 0.000E+00	-2.776E+03	 8.636E+03	-2.780E-01	-9.878E+00	 0.000E+00	 0.000E+00	 0.000E+00	-2.819E+00	 0.000E+00	 9.302E+01	 0.000E+00	 0.000E+00	 0.000E+00	 4.296E+00	 3.356E+01	 4.994E+03	 4.157E+03	 5.245E+03	 4.323E+01	 7.356E+02
  18.425	 0.000E+00	-1.676E-01	 4.369E+00	 2.540E+02	 0.000E+00	-2.804E+03	 8.631E+03	-2.869E-01	-1.012E+01	 0.000E+00	 0.000E+00	 0.000E+00	-2.899E+00	 0.000E+00	 9.301E+01	 0.000E+00	 0.000E+00	 0.000E+00	 4.294E+00	 3.356E+01	 4.994E+03	 4.157E+03	 5.244E+03	 4.323E+01	 7.361E+02
  18.438	 0.000E+00	-1.627E-01	 4.367E+00	 2.539E+02	 0.000E+00	-2.831E+03	 8.628E+03	-2.954E-01	-1.035E+01	 0.000E+00	 0.000E+00	 0.000E+00	-2.975E+00	 0.000E+00	 9.300E+01	 0.000E+00	 0.000E+00	 0.000E+00	 4.294E+00	 3.355E+01	 4.994E+03	 4.158E+03	 5.244E+03	 4.323E+01	 7.366E+02
  18.450	 0.000E+00	-1.581E-01	 4.365E+00	 2.537E+02	 0.000E+00	-2.855E+03	 8.623E+03	-3.032E-01	-1.056E+01	 0.000E+00	 0.000E+00	 0.000E+00	-3.045E+00	 0.000E+00	 9.298E+01	 0.000E+00	 0.000E+00	 0.000E+00	 4.292E+00	 3.355E+01	 4.993E+03	 4.158E+03	 5.245E+03	 4.323E+01	 7.371E+02
  18.463	 0.000E+00	-1.538E-01	 4.363E+00	 2.536E+02	 0.000E+00	-2.877E+03	 8.619E+03	-3.107E-01	-1.076E+01	 0.000E+00	 0.000E+00	 0.000E+00	-3.111E+00	 0.000E+00	 9.297E+01	 0.000E+00	 0.000E+00	 0.000E+00	 4.291E+00	 3.354E+01	 4.993E+03	 4.159E+03	 5.246E+03	 4.324E+01	 7.376E+02
  18.475	 0.000E+00	-1.499E-01	 4.360E+00	 2.535E+02	 0.000E+00	-2.897E+03	 8.615E+03	-3.172E-01	-1.094E+01	 0.000E+00	 0.000E+00	 0.000E+00	-3.170E+00	 0.000E+00	 9.294E+01	 0.000E+00	 0.000E+00	 0.000E+00	 4.289E+00	 3.353E+01	 4.993E+03	 4.160E+03	 5.247E+03	 4.324E+01	 7.381E+02
  18.488	 0.000E+00	-1.464E-01	 4.358E+00	 2.533E+02	 0.000E+00	-2.914E+03	 8.611E+03	-3.234E-01	-1.110E+01	 0.000E+00	 0.000E+00	 0.000E+00	-3.224E+00	 0.000E+00	 9.292E+01	 0.000E+00	 0.000E+00	 0.000E+00	 4.288E+00	 3.353E+01	 4.993E+03	 4.162E+03	 5.249E+03	 4.324E+01	 7.386E+02
  18.500	 0.000E+00	-1.433E-01	 4.356E+00	 2.532E+02	 0.000E+00	-2.929E+03	 8.607E+03	-3.284E-01	-1.124E+01	 0.000E+00	 0.000E+00	 0.000E+00	-3.270E+00	 0.000E+00	 9.289E+01	 0.000E+00	 0.000E+00	 0.000E+00	 4.286E+00	 3.352E+01	 4.993E+03	 4.164E+03	 5.251E+03	 4.324E+01	 7.391E+02
  18.512	 0.000E+00	-1.406E-01	 4.354E+00	 2.531E+02	 0.000E+00	-2.941E+03	 8.603E+03	-3.330E-01	-1.136E+01	 0.000E+00	 0.000E+00	 0.000E+00	-3.311E+00	 0.000E+00	 9.286E+01	 0.000E+00	 0.000E+00	 0.000E+00	 4.285E+00	 3.351E+01	 4.992E+03	 4.166E+03	 5.254E+03	 4.324E+01	 7.397E+02
  18.525	 0.000E+00	-1.383E-01	 4.352E+00	 2.529E+02	 0.000E+00	-2.950E+03	 8.599E+03	-3.365E-01	-1.145E+01	 0.000E+00	 0.000E+00	 0.000E+00	-3.341E+00	 0.000E+00	 9.282E+01	 0.000E+00	 0.000E+00	 0.000E+00	 4.282E+00	 3.350E+01	 4.992E+03	 4.168E+03	 5.256E+03	 4.324E+01	 7.402E+02
  18.538	 0.000E+00	-1.365E-01	 4.350E+00	 2.528E+02	 0.000E+00	-2.957E+03	 8.596E+03	-3.394E-01	-1.153E+01	 0.000E+00	 0.000E+00	 0.000E+00	-3.368E+00	 0.000E+00	 9.279E+01	 0.000E+00	 0.000E+00	 0.000E+00	 4.281E+00	 3.348E+01	 4.992E+03	 4.171E+03	 5.259E+03	 4.324E+01	 7.407E+02
  18.550	 0.000E+00	-1.352E-01	 4.348E+00	 2.527E+02	 0.000E+00	-2.961E+03	 8.592E+03	-3.411E-01	-1.157E+01	 0.000E+00	 0.000E+00	 0.000E+00	-3.383E+00	 0.000E+00	 9.274E+01	 0.000E+00	 0.000E+00	 0.000E+00	 4.278E+00	 3.347E+01	 4.992E+03	 4.173E+03	 5.262E+03	 4.324E+01	 7.413E+02
  18.562	 0.000E+00	-1.343E-01	 4.346E+00	 2.525E+02	 0.000E+00	-2.962E+03	 8.588E+03	-3.425E-01	-1.161E+01	 0.000E+00	 0.000E+00	 0.000E+00	-3.394E+00	 0.000E+00	 9.270E+01	 0.000E+00	 0.000E+00	 0.000E+00	 4.276E+00	 3.345E+01	 4.992E+03	 4.176E+03	 5.265E+03	 4.325E+01	 7.418E+02
  18.575	 0.000E+00	-1.339E-01	 4.344E+00	 2.524E+02	 0.000E+00	-2.961E+03	 8.585E+03	-3.424E-01	-1.161E+01	 0.000E+00	 0.000E+00	 0.000E+00	-3.394E+00	 0.000E+00	 9.265E+01	 0.000E+00	 0.000E+00	 0.000E+00	 4.273E+00	 3.344E+01	 4.992E+03	 4.178E+03	 5.268E+03	 4.325E+01	 7.424E+02
  18.588	 0.000E+00	-1.340E-01	 4.342E+00	 2.523E+02	 0.000E+00	-2.957E+03	 8.581E+03	-3.421E-01	-1.159E+01	 0.000E+00	 0.000E+00	 0.000E+00	-3.391E+00	 0.000E+00	 9.261E+01	 0.000E+00	 0.000E+00	 0.000E+00	 4.271E+00	 3.342E+01	 4.992E+03	 4.181E+03	 5.271E+03	 4.325E+01	 7.429E+02
  18.600	 0.000E+00	-1.345E-01	 4.340E+00	 2.521E+02	 0.000E+00	-2.950E+03	 8.578E+03	-3.404E-01	-1.155E+01	 0.000E+00	 0.000E+00	 0.000E+00	-3.375E+00	 0.000E+00	 9.255E+01	 0.000E+00	 0.000E+00	 0.000E+00	 4.268E+00	 3.340E+01	 4.992E+03	 4.183E+03	 5.274E+03	 4.325E+01	 7.435E+02
  18.613	 0.000E+00	-1.354E-01	 4.338E+00	 2.520E+02	 0.000E+00	-2.940E+03	 8.575E+03	-3.384E-01	-1.149E+01	 0.000E+00	 0.000E+00	 0.000E+00	-3.358E+00	 0.000E+00	 9.249E+01	 0.000E+00	 0.000E+00	 0.000E+00	 4.265E+00	 3.338E+01	 4.992E+03	 4.185E+03	 5.276E+03	 4.325E+01	 7.440E+02
  18.625	 0.000E+00	-1.369E-01	 4.336E+00	 2.519E+02	 0.000E+00	-2.927E+03	 8.572E+03	-3.351E-01	-1.140E+01	 0.000E+00	 0.000E+00	 0.000E+00	-3.328E+00	 0.000E+00	 9.243E+01	 0.000E+00	 0.000E+00	 0.000E+00	 4.262E+00	 3.336E+01	 4.992E+03	 4.187E+03	 5.279E+03	 4.325E+01	 7.446E+02
  18.637	 0.000E+00	-1.387E-01	 4.334E+00	 2.518E+02	 0.000E+00	-2.912E+03	 8.569E+03	-3.318E-01	-1.130E+01	 0.000E+00	 0.000E+00	 0.000E+00	-3.298E+00	 0.000E+00	 9.237E+01	 0.000E+00	 0.000E+00	 0.000E+00	 4.259E+00	 3.333E+01	 4.992E+03	 4.189E+03	 5.281E+03	 4.325E+01	 7.451E+02
  18.650	 0.000E+00	-1.410E-01	 4.333E+00	 2.517E+02	 0.000E+00	-2.895E+03	 8.566E+03	-3.271E-01	-1.118E+01	 0.000E+00	 0.000E+00	 0.000E+00	-3.256E+00	 0.000E+00	 9.231E+01	 0.000E+00	 0.000E+00	 0.000E+00	 4.256E+00	 3.331E+01	 4.992E+03	 4.191E+03	 5.283E+03	 4.325E+01	 7.457E+02
  18.663	 0.000E+00	-1.436E-01	 4.331E+00	 2.516E+02	 0.000E+00	-2.874E+03	 8.564E+03	-3.224E-01	-1.105E+01	 0.000E+00	 0.000E+00	 0.000E+00	-3.214E+00	 0.000E+00	 9.224E+01	 0.000E+00	 0.000E+00	 0.000E+00	 4.252E+00	 3.329E+01	 4.992E+03	 4.192E+03	 5.285E+03	 4.326E+01	 7.463E+02
  18.675	 0.000E+00	-1.467E-01	 4.330E+00	 2.514E+02	 0.000E+00	-2.852E+03	 8.562E+03	-3.165E-01	-1.088E+01	 0.000E+00	 0.000E+00	 0.000E+00	-3.161E+00	 0.000E+00	 9.218E+01	 0.000E+00	 0.000E+00	 0.000E+00	 4.249E+00	 3.326E+01	 4.993E+03	 4.194E+03	 5.286E+03	 4.326E+01	 7.468E+02
  18.688	 0.000E+00	-1.501E-01	 4.328E+00	 2.513E+02	 0.000E+00	-2.827E+03	 8.560E+03	-3.108E-01	-1.072E+01	 0.000E+00	 0.000E+00	 0.000E+00	-3.110E+00	 0.000E+00	 9.211E+01	 0.000E+00	 0.000E+00	 0.000E+00	 4.245E+00	 3.323E+01	 4.993E+03	 4.194E+03	 5.287E+03	 4.326E+01	 7.474E+02
  18.700	 0.000E+00	-1.538E-01	 4.327E+00	 2.512E+02	 0.000E+00	-2.800E+03	 8.558E+03	-3.039E-01	-1.054E+01	 0.000E+00	 0.000E+00	 0.000E+00	-3.048E+00	 0.000E+00	 9.204E+01	 0.000E+00	 0.000E+00	 0.000E+00	 4.241E+00	 3.321E+01	 4.993E+03	 4.195E+03	 5.288E+03	 4.326E+01	 7.479E+02
  18.713	 0.000E+00	-1.579E-01	 4.326E+00	 2.511E+02	 0.000E+00	-2.771E+03	 8.557E+03	-2.973E-01	-1.035E+01	 0.000E+00	 0.000E+00	 0.000E+00	-2.989E+00	 0.000E+00	 9.197E+01	 0.000E+00	 0.000E+00	 0.000E+00	 4.237E+00	 3.318E+01	 4.993E+03	 4.195E+03	 5.288E+03	 4.326E+01	 7.485E+02
  18.725	 0.000E+00	-1.623E-01	 4.325E+00	 2.511E+02	 0.000E+00	-2.741E+03	 8.555E+03	-2.896E-01	-1.014E+01	 0.000E+00	 0.000E+00	 0.000E+00	-2.920E+00	 0.000E+00	 9.190E+01	 0.000E+00	 0.000E+00	 0.000E+00	 4.234E+00	 3.315E+01	 4.993E+03	 4.195E+03	 5.287E+03	 4.326E+01	 7.491E+02
  18.738	 0.000E+00	-1.669E-01	 4.324E+00	 2.510E+02	 0.000E+00	-2.708E+03	 8.555E+03	-2.823E-01	-9.941E+00	 0.000E+00	 0.000E+00	 0.000E+00	-2.855E+00	 0.000E+00	 9.183E+01	 0.000E+00	 0.000E+00	 0.000E+00	 4.230E+00	 3.312E+01	 4.993E+03	 4.194E+03	 5.287E+03	 4.326E+01	 7.496E+02
  18.750	 0.000E+00	-1.718E-01	 4.324E+00	 2.509E+02	 0.000E+00	-2.674E+03	 8.554E+03	-2.740E-01	-9.715E+00	 0.000E+00	 0.000E+00	 0.000E+00	-2.781E+00	 0.000E+00	 9.176E+01	 0.000E+00	 0.000E+00	 0.000E+00	 4.226E+00	 3.310E+01	 4.993E+03	 4.194E+03	 5.286E+03	 4.326E+01	 7.502E+02
  18.762	 0.000E+00	-1.770E-01	 4.323E+00	 2.508E+02	 0.000E+00	-2.638E+03	 8.553E+03	-2.662E-01	-9.498E+00	 0.000E+00	 0.000E+00	 0.000E+00	-2.712E+00	 0.000E+00	 9.169E+01	 0.000E+00	 0.000E+00	 0.000E+00	 4.222E+00	 3.307E+01	 4.993E+03	 4.193E+03	 5.284E+03	 4.327E+01	 7.507E+02
  18.775	 0.000E+00	-1.823E-01	 4.323E+00	 2.507E+02	 0.000E+00	-2.601E+03	 8.553E+03	-2.574E-01	-9.260E+00	 0.000E+00	 0.000E+00	 0.000E+00	-2.634E+00	 0.000E+00	 9.163E+01	 0.000E+00	 0.000E+00	 0.000E+00	 4.218E+00	 3.304E+01	 4.993E+03	 4.192E+03	 5.282E+03	 4.327E+01	 7.512E+02
  18.788	 0.000E+00	-1.878E-01	 4.323E+00	 2.507E+02	 0.000E+00	-2.562E+03	 8.554E+03	-2.492E-01	-9.034E+00	 0.000E+00	 0.000E+00	 0.000E+00	-2.561E+00	 0.000E+00	 9.156E+01	 0.000E+00	 0.000E+00	 0.000E+00	 4.214E+00	 3.301E+01	 4.994E+03	 4.190E+03	 5.280E+03	 4.327E+01	 7.518E+02
  18.800	 0.000E+00	-1.935E-01	 4.323E+00	 2.506E+02	 0.000E+00	-2.523E+03	 8.554E+03	-2.401E-01	-8.788E+00	 0.000E+00	 0.000E+00	 0.000E+00	-2.480E+00	 0.000E+00	 9.149E+01	 0.000E+00	 0.000E+00	 0.000E+00	 4.210E+00	 3.299E+01	 4.994E+03	 4.188E+03	 5.278E+03	 4.327E+01	 7.523E+02
  18.812	 0.000E+00	-1.993E-01	 4.323E+00	 2.506E+02	 0.000E+00	-2.482E+03	 8.555E+03	-2.317E-01	-8.554E+00	 0.000E+00	 0.000E+00	 0.000E+00	-2.405E+00	 0.000E+00	 9.142E+01	 0.000E+00	 0.000E+00	 0.000E+00	 4.206E+00	 3.296E+01	 4.994E+03	 4.187E+03	 5.276E+03	 4.327E+01	 7.528E+02
  18.825	 0.000E+00	-2.052E-01	 4.323E+00	 2.505E+02	 0.000E+00	-2.441E+03	 8.556E+03	-2.224E-01	-8.303E+00	 0.000E+00	 0.000E+00	 0.000E+00	-2.323E+00	 0.000E+00	 9.137E+01	 0.000E+00	 0.000E+00	 0.000E+00	 4.202E+00	 3.294E+01	 4.994E+03	 4.185E+03	 5.273E+03	 4.327E+01	 7.533E+02
  18.838	 0.000E+00	-2.113E-01	 4.323E+00	 2.505E+02	 0.000E+00	-2.399E+03	 8.557E+03	-2.138E-01	-8.066E+00	 0.000E+00	 0.000E+00	 0.000E+00	-2.246E+00	 0.000E+00	 9.130E+01	 0.000E+00	 0.000E+00	 0.000E+00	 4.198E+00	 3.291E+01	 4.994E+03	 4.183E+03	 5.271E+03	 4.327E+01	 7.538E+02
  18.850	 0.000E+00	-2.174E-01	 4.324E+00	 2.504E+02	 0.000E+00	-2.357E+03	 8.559E+03	-2.045E-01	-7.814E+00	 0.000E+00	 0.000E+00	 0.000E+00	-2.164E+00	 0.000E+00	 9.125E+01	 0.000E+00	 0.000E+00	 0.000E+00	 4.195E+00	 3.289E+01	 4.994E+03	 4.181E+03	 5.268E+03	 4.327E+01	 7.543E+02
  18.863	 0.000E+00	-2.235E-01	 4.324E+00	 2.504E+02	 0.000E+00	-2.314E+03	 8.560E+03	-1.959E-01	-7.576E+00	 0.000E+00	 0.000E+00	 0.000E+00	-2.087E+00	 0.000E+00	 9.119E+01	 0.000E+00	 0.000E+00	 0.000E+00	 4.191E+00	 3.286E+01	 4.994E+03	 4.179E+03	 5.266E+03	 4.327E+01	 7.548E+02
  18.875	 0.000E+00	-2.297E-01	 4.325E+00	 2.504E+02	 0.000E+00	-2.271E+03	 8.562E+03	-1.866E-01	-7.326E+00	 0.000E+00	 0.000E+00	 0.000E+00	-2.006E+00	 0.000E+00	 9.114E+01	 0.000E+00	 0.000E+00	 0.000E+00	 4.188E+00	 3.284E+01	 4.993E+03	 4.177E+03	 5.263E+03	 4.328E+01	 7.553E+02
  18.887	 0.000E+00	-2.359E-01	 4.326E+00	 2.504E+02	 0.000E+00	-2.228E+03	 8.565E+03	-1.781E-01	-7.090E+00	 0.000E+00	 0.000E+00	 0.000E+00	-1.930E+00	 0.000E+00	 9.108E+01	 0.000E+00	 0.000E+00	 0.000E+00	 4.184E+00	 3.281E+01	 4.993E+03	 4.176E+03	 5.261E+03	 4.328E+01	 7.558E+02
  18.900	 0.000E+00	-2.420E-01	 4.327E+00	 2.504E+02	 0.000E+00	-2.185E+03	 8.567E+03	-1.691E-01	-6.846E+00	 0.000E+00	 0.000E+00	 0.000E+00	-1.850E+00	 0.000E+00	 9.104E+01	 0.000E+00	 0.000E+00	 0.000E+00	 4.181E+00	 3.280E+01	 4.993E+03	 4.174E+03	 5.259E+03	 4.328E+01	 7.562E+02
  18.913	 0.000E+00	-2.481E-01	 4.328E+00	 2.504E+02	 0.000E+00	-2.142E+03	 8.570E+03	-1.607E-01	-6.617E+00	 0.000E+00	 0.000E+00	 0.000E+00	-1.776E+00	 0.000E+00	 9.100E+01	 0.000E+00	 0.000E+00	 0.000E+00	 4.177E+00	 3.277E+01	 4.993E+03	 4.173E+03	 5.257E+03	 4.328E+01	 7.567E+02
  18.925	 0.000E+00	-2.542E-01	 4.330E+00	 2.504E+02	 0.000E+00	-2.100E+03	 8.573E+03	-1.521E-01	-6.382E+00	 0.000E+00	 0.000E+00	 0.000E+00	-1.699E+00	 0.000E+00	 9.096E+01	 0.000E+00	 0.000E+00	 0.000E+00	 4.175E+00	 3.276E+01	 4.993E+03	 4.171E+03	 5.255E+03	 4.328E+01	 7.572E+02
  18.938	 0.000E+00	-2.602E-01	 4.331E+00	 2.504E+02	 0.000E+00	-2.058E+03	 8.576E+03	-1.441E-01	-6.164E+00	 0.000E+00	 0.000E+00	 0.000E+00	-1.629E+00	 0.000E+00	 9.092E+01	 0.000E+00	 0.000E+00	 0.000E+00	 4.171E+00	 3.274E+01	 4.993E+03	 4.170E+03	 5.254E+03	 4.328E+01	 7.576E+02
  18.950	 0.000E+00	-2.661E-01	 4.333E+00	 2.504E+02	 0.000E+00	-2.016E+03	 8.579E+03	-1.359E-01	-5.943E+00	 0.000E+00	 0.000E+00	 0.000E+00	-1.557E+00	 0.000E+00	 9.090E+01	 0.000E+00	 0.000E+00	 0.000E+00	 4.169E+00	 3.273E+01	 4.993E+03	 4.170E+03	 5.253E+03	 4.328E+01	 7.581E+02
  18.963	 0.000E+00	-2.719E-01	 4.335E+00	 2.504E+02	 0.000E+00	-1.975E+03	 8.583E+03	-1.285E-01	-5.740E+00	 0.000E+00	 0.000E+00	 0.000E+00	-1.491E+00	 0.000E+00	 9.087E+01	 0.000E+00	 0.000E+00	 0.000E+00	 4.166E+00	 3.271E+01	 4.993E+03	 4.169E+03	 5.252E+03	 4.328E+01	 7.585E+02
  18.975	 0.000E+00	-2.775E-01	 4.337E+00	 2.504E+02	 0.000E+00	-1.934E+03	 8.587E+03	-1.210E-01	-5.537E+00	 0.000E+00	 0.000E+00	 0.000E+00	-1.425E+00	 0.000E+00	 9.085E+01	 0.000E+00	 0.000E+00	 0.000E+00	 4.164E+00	 3.270E+01	 4.992E+03	 4.169E+03	 5.252E+03	 4.328E+01	 7.589E+02
  18.988	 0.000E+00	-2.830E-01	 4.339E+00	 2.504E+02	 0.000E+00	-1.895E+03	 8.591E+03	-1.143E-01	-5.353E+00	 0.000E+00	 0.000E+00	 0.000E+00	-1.366E+00	 0.000E+00	 9.083E+01	 0.000E+00	 0.000E+00	 0.000E+00	 4.162E+00	 3.269E+01	 4.992E+03	 4.169E+03	 5.252E+03	 4.329E+01	 7.594E+02
  19.000	 0.000E+00	-2.884E-01	 4.341E+00	 2.504E+02	 0.000E+00	-1.856E+03	 8.595E+03	-1.076E-01	-5.173E+00	 0.000E+00	 0.000E+00	 0.000E+00	-1.307E+00	 0.000E+00	 9.083E+01	 0.000E+00	 0.000E+00	 0.000E+00	 4.160E+00	 3.268E+01	 4.992E+03	 4.170E+03	 5.252E+03	 4.329E+01	 7.598E+02
  19.012	 0.000E+00	-2.935E-01	 4.343E+00	 2.505E+02	 0.000E+00	-1.818E+03	 8.599E+03	-1.017E-01	-5.012E+00	 0.000E+00	 0.000E+00	 0.000E+00	-1.255E+00	 0.000E+00	 9.082E+01	 0.000E+00	 0.000E+00	 0.000E+00	 4.158E+00	 3.267E+01	 4.992E+03	 4.171E+03	 5.253E+03	 4.329E+01	 7.602E+02
  19.025	 0.000E+00	-2.985E-01	 4.345E+00	 2.505E+02	 0.000E+00	-1.781E+03	 8.604E+03	-9.597E-02	-4.858E+00	 0.000E+00	 0.000E+00	 0.000E+00	-1.205E+00	 0.000E+00	 9.082E+01	 0.000E+00	 0.000E+00	 0.000E+00	 4.157E+00	 3.267E+01	 4.992E+03	 4.172E+03	 5.254E+03	 4.329E+01	 7.606E+02
  19.038	 0.000E+00	-3.033E-01	 4.348E+00	 2.506E+02	 0.000E+00	-1.744E+03	 8.608E+03	-9.101E-02	-4.723E+00	 0.000E+00	 0.000E+00	 0.000E+00	-1.162E+00	 0.000E+00	 9.082E+01	 0.000E+00	 0.000E+00	 0.000E+00	 4.156E+00	 3.267E+01	 4.992E+03	 4.173E+03	 5.256E+03	 4.329E+01	 7.611E+02
  19.050	 0.000E+00	-3.079E-01	 4.351E+00	 2.506E+02	 0.000E+00	-1.709E+03	 8.613E+03	-8.630E-02	-4.596E+00	 0.000E+00	 0.000E+00	 0.000E+00	-1.121E+00	 0.000E+00	 9.083E+01	 0.000E+00	 0.000E+00	 0.000E+00	 4.155E+00	 3.267E+01	 4.992E+03	 4.175E+03	 5.258E+03	 4.329E+01	 7.615E+02
  19.062	 0.000E+00	-3.123E-01	 4.353E+00	 2.507E+02	 0.000E+00	-1.675E+03	 8.618E+03	-8.233E-02	-4.489E+00	 0.000E+00	 0.000E+00	 0.000E+00	-1.087E+00	 0.000E+00	 9.085E+01	 0.000E+00	 0.000E+00	 0.000E+00	 4.154E+00	 3.267E+01	 4.992E+03	 4.177E+03	 5.260E+03	 4.329E+01	 7.619E+02
  19.075	 0.000E+00	-3.164E-01	 4.356E+00	 2.507E+02	 0.000E+00	-1.641E+03	 8.623E+03	-7.868E-02	-4.392E+00	 0.000E+00	 0.000E+00	 0.000E+00	-1.056E+00	 0.000E+00	 9.087E+01	 0.000E+00	 0.000E+00	 0.000E+00	 4.154E+00	 3.267E+01	 4.992E+03	 4.179E+03	 5.262E+03	 4.330E+01	 7.623E+02
  19.088	 0.000E+00	-3.204E-01	 4.359E+00	 2.508E+02	 0.000E+00	-1.609E+03	 8.628E+03	-7.570E-02	-4.312E+00	 0.000E+00	 0.000E+00	 0.000E+00	-1.031E+00	 0.000E+00	 9.089E+01	 0.000E+00	 0.000E+00	 0.000E+00	 4.153E+00	 3.268E+01	 4.992E+03	 4.181E+03	 5.265E+03	 4.330E+01	 7.627E+02
  19.100	 0.000E+00	-3.242E-01	 4.362E+00	 2.508E+02	 0.000E+00	-1.577E+03	 8.633E+03	-7.308E-02	-4.243E+00	 0.000E+00	 0.000E+00	 0.000E+00	-1.009E+00	 0.000E+00	 9.092E+01	 0.000E+00	 0.000E+00	 0.000E+00	 4.153E+00	 3.269E+01	 4.992E+03	 4.184E+03	 5.268E+03	 4.330E+01	 7.631E+02
  19.113	 0.000E+00	-3.279E-01	 4.365E+00	 2.509E+02	 0.000E+00	-1.547E+03	 8.639E+03	-7.104E-02	-4.189E+00	 0.000E+00	 0.000E+00	 0.000E+00	-9.926E-01	 0.000E+00	 9.096E+01	 0.000E+00	 0.000E+00	 0.000E+00	 4.154E+00	 3.270E+01	 4.992E+03	 4.186E+03	 5.272E+03	 4.330E+01	 7.635E+02
  19.125	 0.000E+00	-3.313E-01	 4.368E+00	 2.510E+02	 0.000E+00	-1.517E+03	 8.644E+03	-6.936E-02	-4.145E+00	 0.000E+00	 0.000E+00	 0.000E+00	-9.793E-01	 0.000E+00	 9.099E+01	 0.000E+00	 0.000E+00	 0.000E+00	 4.154E+00	 3.271E+01	 4.992E+03	 4.189E+03	 5.275E+03	 4.330E+01	 7.639E+02
  19.137	 0.000E+00	-3.346E-01	 4.371E+00	 2.511E+02	 0.000E+00	-1.488E+03	 8.650E+03	-6.816E-02	-4.115E+00	 0.000E+00	 0.000E+00	 0.000E+00	-9.704E-01	 0.000E+00	 9.103E+01	 0.000E+00	 0.000E+00	 0.000E+00	 4.155E+00	 3.272E+01	 4.992E+03	 4.192E+03	 5.278E+03	 4.330E+01	 7.643E+02
  19.150	 0.000E+00	-3.377E-01	 4.374E+00	 2.511E+02	 0.000E+00	-1.460E+03	 8.656E+03	-6.728E-02	-4.093E+00	 0.000E+00	 0.000E+00	 0.000E+00	-9.644E-01	 0.000E+00	 9.108E+01	 0.000E+00	 0.000E+00	 0.000E+00	 4.155E+00	 3.273E+01	 4.992E+03	 4.195E+03	 5.282E+03	 4.330E+01	 7.647E+02
  19.163	 0.000E+00	-3.407E-01	 4.377E+00	 2.512E+02	 0.000E+00	-1.432E+03	 8.662E+03	-6.677E-02	-4.082E+00	 0.000E+00	 0.000E+00	 0.000E+00	-9.618E-01	 0.000E+00	 9.113E+01	 0.000E+00	 0.000E+00	 0.000E+00	 4.157E+00	 3.275E+01	 4.992E+03	 4.198E+03	 5.285E+03	 4.331E+01	 7.651E+02
  19.175	 0.000E+00	-3.435E-01	 4.381E+00	 2.513E+02	 0.000E+00	-1.405E+03	 8.667E+03	-6.654E-02	-4.078E+00	 0.000E+00	 0.000E+00	 0.000E+00	-9.617E-01	 0.000E+00	 9.117E+01	 0.000E+00	 0.000E+00	 0.000E+00	 4.158E+00	 3.276E+01	 4.992E+03	 4.200E+03	 5.289E+03	 4.331E+01	 7.655E+02
  19.188	 0.000E+00	-3.463E-01	 4.384E+00	 2.514E+02	 0.000E+00	-1.378E+03	 8.674E+03	-6.656E-02	-4.082E+00	 0.000E+00	 0.000E+00	 0.000E+00	-9.639E-01	 0.000E+00	 9.123E+01	 0.000E+00	 0.000E+00	 0.000E+00	 4.159E+00	 3.278E+01	 4.992E+03	 4.203E+03	 5.292E+03	 4.331E+01	 7.659E+02
  19.200	 0.000E+00	-3.490E-01	 4.387E+00	 2.515E+02	 0.000E+00	-1.352E+03	 8.680E+03	-6.679E-02	-4.091E+00	 0.000E+00	 0.000E+00	 0.000E+00	-9.680E-01	 0.000E+00	 9.128E+01	 0.000E+00	 0.000E+00	 0.000E+00	 4.160E+00	 3.279E+01	 4.992E+03	 4.206E+03	 5.295E+03	 4.331E+01	 7.663E+02
  19.213	 0.000E+00	-3.516E-01	 4.391E+00	 2.516E+02	 0.000E+00	-1.326E+03	 8.686E+03	-6.717E-02	-4.104E+00	 0.000E+00	 0.000E+00	 0.000E+00	-9.735E-01	 0.000E+00	 9.134E+01	 0.000E+00	 0.000E+00	 0.000E+00	 4.162E+00	 3.282E+01	 4.993E+03	 4.208E+03	 5.298E+03	 4.331E+01	 7.667E+02
  19.225	 0.000E+00	-3.542E-01	 4.394E+00	 2.517E+02	 0.000E+00	-1.300E+03	 8.692E+03	-6.768E-02	-4.121E+00	 0.000E+00	 0.000E+00	 0.000E+00	-9.802E-01	 0.000E+00	 9.139E+01	 0.000E+00	 0.000E+00	 0.000E+00	 4.164E+00	 3.283E+01	 4.993E+03	 4.210E+03	 5.301E+03	 4.331E+01	 7.671E+02
  19.238	 0.000E+00	-3.568E-01	 4.397E+00	 2.518E+02	 0.000E+00	-1.275E+03	 8.698E+03	-6.824E-02	-4.140E+00	 0.000E+00	 0.000E+00	 0.000E+00	-9.873E-01	 0.000E+00	 9.146E+01	 0.000E+00	 0.000E+00	 0.000E+00	 4.166E+00	 3.286E+01	 4.993E+03	 4.212E+03	 5.303E+03	 4.331E+01	 7.675E+02
  19.250	 0.000E+00	-3.593E-01	 4.401E+00	 2.518E+02	 0.000E+00	-1.249E+03	 8.705E+03	-6.886E-02	-4.160E+00	 0.000E+00	 0.000E+00	 0.000E+00	-9.950E-01	 0.000E+00	 9.151E+01	 0.000E+00	 0.000E+00	 0.000E+00	 4.168E+00	 3.287E+01	 4.993E+03	 4.214E+03	 5.306E+03	 4.331E+01	 7.679E+02
  19.263	 0.000E+00	-3.619E-01	 4.404E+00	 2.519E+02	 0.000E+00	-1.223E+03	 8.711E+03	-6.944E-02	-4.179E+00	 0.000E+00	 0.000E+00	 0.000E+00	-1.002E+00	 0.000E+00	 9.158E+01	 0.000E+00	 0.000E+00	 0.000E+00	 4.170E+00	 3.290E+01	 4.994E+03	 4.215E+03	 5.307E+03	 4.332E+01	 7.683E+02
