
These predictions were generated by FAST (v7.02.00d-bjj, 20-Feb-2013)-Compiled using DOUBLE precision on 18-Aug-2018 at 21:18:51.
The aerodynamic calculations were made by AeroDyn (v13.00.02a-bjj, 20-Feb-2013).

 NREL 5.0 MW Baseline Wind Turbine for Use in Offshore Analysis.

Time	TwstDefl1	IPDefl1	OoPDefl1	RootFxc1	Spn7MLyb1	RootMxb1	RootMyb1	Spn3MLxb1	Spn1MLxb1	Spn4MLyb1	Spn5MLxb1	Spn4MLxb1	Spn2MLxb1	Spn7MLxb1	Spn1MLyb1	Spn5MLyb1	Spn6MLyb1	Spn6MLxb1	Spn3MLyb1	Spn2MLyb1	GenPwr	RotTorq	RotPwr	GenTq	RotThrust
(s)	(deg)	(m)	(m)	(kN)	(kN·m)	(kN·m)	(kN·m)	(kN·m)	(kN·m)	(kN·m)	(kN·m)	(kN·m)	(kN·m)	(kN·m)	(kN·m)	(kN·m)	(kN·m)	(kN·m)	(kN·m)	(kN·m)	(kW)	(kN·m)	(kW)	(kN·m)	(kN)
  15.000	 0.000E+00	-7.326E-01	 4.268E+00	 2.348E+02	 3.443E+03	 1.449E+03	 8.369E+03	-5.323E+02	-5.249E+02	 6.009E+03	-3.356E+02	-5.224E+02	-5.330E+02	-1.472E+02	 8.140E+03	 5.097E+03	 4.237E+03	-2.245E+02	 6.815E+03	 7.473E+03	 5.005E+03	 4.142E+03	 5.296E+03	 4.277E+01	 6.919E+02
  15.013	 0.000E+00	-7.417E-01	 4.263E+00	 2.345E+02	 3.441E+03	 1.517E+03	 8.360E+03	-4.819E+02	-4.607E+02	 6.011E+03	-3.007E+02	-4.796E+02	-4.760E+02	-1.256E+02	 8.147E+03	 5.097E+03	 4.237E+03	-1.968E+02	 6.819E+03	 7.478E+03	 5.005E+03	 4.147E+03	 5.302E+03	 4.276E+01	 6.914E+02
  15.025	 0.000E+00	-7.510E-01	 4.258E+00	 2.343E+02	 3.440E+03	 1.586E+03	 8.352E+03	-4.305E+02	-3.952E+02	 6.015E+03	-2.650E+02	-4.358E+02	-4.179E+02	-1.034E+02	 8.154E+03	 5.098E+03	 4.236E+03	-1.683E+02	 6.823E+03	 7.484E+03	 5.005E+03	 4.152E+03	 5.308E+03	 4.276E+01	 6.909E+02
  15.038	 0.000E+00	-7.606E-01	 4.253E+00	 2.340E+02	 3.439E+03	 1.657E+03	 8.344E+03	-3.780E+02	-3.285E+02	 6.018E+03	-2.286E+02	-3.911E+02	-3.587E+02	-8.079E+01	 8.162E+03	 5.099E+03	 4.236E+03	-1.392E+02	 6.828E+03	 7.490E+03	 5.005E+03	 4.156E+03	 5.313E+03	 4.276E+01	 6.905E+02
  15.050	 0.000E+00	-7.704E-01	 4.248E+00	 2.338E+02	 3.438E+03	 1.729E+03	 8.337E+03	-3.247E+02	-2.607E+02	 6.022E+03	-1.915E+02	-3.457E+02	-2.985E+02	-5.774E+01	 8.170E+03	 5.101E+03	 4.236E+03	-1.096E+02	 6.834E+03	 7.497E+03	 5.005E+03	 4.160E+03	 5.318E+03	 4.276E+01	 6.901E+02
  15.062	 0.000E+00	-7.804E-01	 4.244E+00	 2.336E+02	 3.437E+03	 1.802E+03	 8.329E+03	-2.707E+02	-1.921E+02	 6.027E+03	-1.539E+02	-2.996E+02	-2.375E+02	-3.428E+01	 8.179E+03	 5.103E+03	 4.236E+03	-7.957E+01	 6.840E+03	 7.504E+03	 5.005E+03	 4.163E+03	 5.322E+03	 4.276E+01	 6.896E+02
  15.075	 0.000E+00	-7.905E-01	 4.239E+00	 2.334E+02	 3.437E+03	 1.876E+03	 8.323E+03	-2.161E+02	-1.228E+02	 6.032E+03	-1.158E+02	-2.530E+02	-1.759E+02	-1.053E+01	 8.189E+03	 5.105E+03	 4.236E+03	-4.912E+01	 6.846E+03	 7.512E+03	 5.005E+03	 4.166E+03	 5.325E+03	 4.276E+01	 6.893E+02
  15.088	 0.000E+00	-8.008E-01	 4.235E+00	 2.332E+02	 3.436E+03	 1.951E+03	 8.316E+03	-1.610E+02	-5.293E+01	 6.037E+03	-7.736E+01	-2.059E+02	-1.137E+02	 1.352E+01	 8.199E+03	 5.107E+03	 4.237E+03	-1.833E+01	 6.853E+03	 7.520E+03	 5.005E+03	 4.168E+03	 5.328E+03	 4.276E+01	 6.889E+02
  15.100	 0.000E+00	-8.112E-01	 4.230E+00	 2.330E+02	 3.436E+03	 2.026E+03	 8.311E+03	-1.055E+02	 1.728E+01	 6.042E+03	-3.862E+01	-1.586E+02	-5.125E+01	 3.775E+01	 8.210E+03	 5.110E+03	 4.238E+03	 1.269E+01	 6.860E+03	 7.529E+03	 5.005E+03	 4.169E+03	 5.329E+03	 4.276E+01	 6.886E+02
  15.113	 0.000E+00	-8.217E-01	 4.226E+00	 2.328E+02	 3.436E+03	 2.101E+03	 8.305E+03	-4.991E+01	 8.766E+01	 6.048E+03	 3.198E-01	-1.111E+02	 1.141E+01	 6.218E+01	 8.221E+03	 5.113E+03	 4.239E+03	 4.392E+01	 6.868E+03	 7.539E+03	 5.005E+03	 4.169E+03	 5.329E+03	 4.276E+01	 6.882E+02
  15.125	 0.000E+00	-8.323E-01	 4.222E+00	 2.327E+02	 3.436E+03	 2.177E+03	 8.301E+03	 5.779E+00	 1.581E+02	 6.055E+03	 3.935E+01	-6.347E+01	 7.412E+01	 8.669E+01	 8.233E+03	 5.116E+03	 4.241E+03	 7.523E+01	 6.876E+03	 7.549E+03	 5.005E+03	 4.168E+03	 5.328E+03	 4.276E+01	 6.879E+02
  15.138	 0.000E+00	-8.429E-01	 4.219E+00	 2.325E+02	 3.437E+03	 2.252E+03	 8.296E+03	 6.135E+01	 2.283E+02	 6.061E+03	 7.839E+01	-1.593E+01	 1.367E+02	 1.113E+02	 8.244E+03	 5.120E+03	 4.243E+03	 1.066E+02	 6.884E+03	 7.558E+03	 5.005E+03	 4.167E+03	 5.326E+03	 4.276E+01	 6.876E+02
  15.150	 0.000E+00	-8.536E-01	 4.215E+00	 2.324E+02	 3.437E+03	 2.327E+03	 8.292E+03	 1.167E+02	 2.982E+02	 6.068E+03	 1.173E+02	 3.146E+01	 1.990E+02	 1.358E+02	 8.257E+03	 5.124E+03	 4.244E+03	 1.379E+02	 6.893E+03	 7.569E+03	 5.005E+03	 4.165E+03	 5.323E+03	 4.276E+01	 6.874E+02
  15.163	 0.000E+00	-8.642E-01	 4.212E+00	 2.323E+02	 3.438E+03	 2.402E+03	 8.289E+03	 1.717E+02	 3.675E+02	 6.075E+03	 1.560E+02	 7.854E+01	 2.608E+02	 1.603E+02	 8.269E+03	 5.128E+03	 4.247E+03	 1.691E+02	 6.902E+03	 7.580E+03	 5.005E+03	 4.161E+03	 5.319E+03	 4.275E+01	 6.871E+02
  15.175	 0.000E+00	-8.748E-01	 4.209E+00	 2.322E+02	 3.439E+03	 2.476E+03	 8.286E+03	 2.262E+02	 4.361E+02	 6.083E+03	 1.945E+02	 1.252E+02	 3.221E+02	 1.846E+02	 8.283E+03	 5.132E+03	 4.249E+03	 2.000E+02	 6.912E+03	 7.591E+03	 5.005E+03	 4.158E+03	 5.314E+03	 4.275E+01	 6.869E+02
  15.188	 0.000E+00	-8.853E-01	 4.206E+00	 2.321E+02	 3.440E+03	 2.549E+03	 8.283E+03	 2.800E+02	 5.039E+02	 6.090E+03	 2.325E+02	 1.714E+02	 3.826E+02	 2.087E+02	 8.295E+03	 5.137E+03	 4.251E+03	 2.306E+02	 6.921E+03	 7.602E+03	 5.005E+03	 4.153E+03	 5.308E+03	 4.275E+01	 6.867E+02
  15.200	 0.000E+00	-8.957E-01	 4.203E+00	 2.321E+02	 3.441E+03	 2.621E+03	 8.281E+03	 3.331E+02	 5.707E+02	 6.098E+03	 2.699E+02	 2.168E+02	 4.422E+02	 2.325E+02	 8.309E+03	 5.141E+03	 4.254E+03	 2.608E+02	 6.931E+03	 7.613E+03	 5.005E+03	 4.148E+03	 5.301E+03	 4.275E+01	 6.866E+02
  15.213	 0.000E+00	-9.060E-01	 4.200E+00	 2.320E+02	 3.443E+03	 2.692E+03	 8.279E+03	 3.852E+02	 6.363E+02	 6.106E+03	 3.068E+02	 2.615E+02	 5.007E+02	 2.559E+02	 8.322E+03	 5.146E+03	 4.257E+03	 2.906E+02	 6.941E+03	 7.625E+03	 5.005E+03	 4.142E+03	 5.294E+03	 4.275E+01	 6.864E+02
  15.225	 0.000E+00	-9.161E-01	 4.198E+00	 2.320E+02	 3.444E+03	 2.761E+03	 8.277E+03	 4.362E+02	 7.006E+02	 6.114E+03	 3.429E+02	 3.053E+02	 5.581E+02	 2.788E+02	 8.336E+03	 5.151E+03	 4.259E+03	 3.197E+02	 6.951E+03	 7.637E+03	 5.005E+03	 4.136E+03	 5.286E+03	 4.275E+01	 6.863E+02
  15.238	 0.000E+00	-9.260E-01	 4.196E+00	 2.319E+02	 3.445E+03	 2.829E+03	 8.276E+03	 4.861E+02	 7.634E+02	 6.122E+03	 3.781E+02	 3.480E+02	 6.142E+02	 3.012E+02	 8.349E+03	 5.156E+03	 4.262E+03	 3.481E+02	 6.960E+03	 7.648E+03	 5.005E+03	 4.130E+03	 5.277E+03	 4.275E+01	 6.862E+02
  15.250	 0.000E+00	-9.357E-01	 4.193E+00	 2.319E+02	 3.447E+03	 2.896E+03	 8.276E+03	 5.347E+02	 8.247E+02	 6.130E+03	 4.124E+02	 3.897E+02	 6.688E+02	 3.229E+02	 8.363E+03	 5.161E+03	 4.265E+03	 3.758E+02	 6.970E+03	 7.660E+03	 5.004E+03	 4.123E+03	 5.268E+03	 4.275E+01	 6.861E+02
  15.263	 0.000E+00	-9.451E-01	 4.192E+00	 2.319E+02	 3.448E+03	 2.960E+03	 8.275E+03	 5.818E+02	 8.842E+02	 6.138E+03	 4.456E+02	 4.300E+02	 7.218E+02	 3.440E+02	 8.376E+03	 5.166E+03	 4.268E+03	 4.026E+02	 6.980E+03	 7.671E+03	 5.004E+03	 4.116E+03	 5.259E+03	 4.275E+01	 6.860E+02
  15.275	 0.000E+00	-9.542E-01	 4.190E+00	 2.319E+02	 3.450E+03	 3.023E+03	 8.275E+03	 6.275E+02	 9.420E+02	 6.146E+03	 4.777E+02	 4.691E+02	 7.733E+02	 3.643E+02	 8.390E+03	 5.171E+03	 4.271E+03	 4.284E+02	 6.990E+03	 7.683E+03	 5.004E+03	 4.109E+03	 5.250E+03	 4.275E+01	 6.861E+02
  15.288	 0.000E+00	-9.630E-01	 4.188E+00	 2.319E+02	 3.452E+03	 3.084E+03	 8.275E+03	 6.714E+02	 9.977E+02	 6.154E+03	 5.086E+02	 5.066E+02	 8.228E+02	 3.837E+02	 8.403E+03	 5.176E+03	 4.274E+03	 4.532E+02	 6.999E+03	 7.694E+03	 5.003E+03	 4.102E+03	 5.241E+03	 4.275E+01	 6.860E+02
  15.300	 0.000E+00	-9.714E-01	 4.187E+00	 2.320E+02	 3.453E+03	 3.143E+03	 8.276E+03	 7.138E+02	 1.051E+03	 6.161E+03	 5.382E+02	 5.427E+02	 8.706E+02	 4.022E+02	 8.416E+03	 5.181E+03	 4.277E+03	 4.769E+02	 7.009E+03	 7.705E+03	 5.003E+03	 4.095E+03	 5.231E+03	 4.275E+01	 6.861E+02
  15.312	 0.000E+00	-9.795E-01	 4.186E+00	 2.320E+02	 3.455E+03	 3.199E+03	 8.277E+03	 7.542E+02	 1.103E+03	 6.169E+03	 5.663E+02	 5.771E+02	 9.163E+02	 4.199E+02	 8.429E+03	 5.185E+03	 4.280E+03	 4.994E+02	 7.018E+03	 7.716E+03	 5.002E+03	 4.089E+03	 5.223E+03	 4.275E+01	 6.861E+02
  15.325	 0.000E+00	-9.871E-01	 4.185E+00	 2.321E+02	 3.456E+03	 3.253E+03	 8.278E+03	 7.929E+02	 1.152E+03	 6.176E+03	 5.931E+02	 6.100E+02	 9.602E+02	 4.364E+02	 8.442E+03	 5.190E+03	 4.283E+03	 5.207E+02	 7.028E+03	 7.727E+03	 5.001E+03	 4.083E+03	 5.214E+03	 4.275E+01	 6.862E+02
  15.338	 0.000E+00	-9.944E-01	 4.184E+00	 2.322E+02	 3.458E+03	 3.305E+03	 8.279E+03	 8.296E+02	 1.200E+03	 6.183E+03	 6.184E+02	 6.410E+02	 1.002E+03	 4.520E+02	 8.454E+03	 5.195E+03	 4.286E+03	 5.408E+02	 7.036E+03	 7.737E+03	 5.001E+03	 4.077E+03	 5.207E+03	 4.275E+01	 6.862E+02
  15.350	 0.000E+00	-1.001E+00	 4.183E+00	 2.323E+02	 3.460E+03	 3.355E+03	 8.282E+03	 8.644E+02	 1.244E+03	 6.191E+03	 6.422E+02	 6.704E+02	 1.041E+03	 4.665E+02	 8.466E+03	 5.199E+03	 4.289E+03	 5.597E+02	 7.045E+03	 7.748E+03	 5.000E+03	 4.072E+03	 5.199E+03	 4.275E+01	 6.864E+02
  15.363	 0.000E+00	-1.008E+00	 4.183E+00	 2.324E+02	 3.461E+03	 3.402E+03	 8.283E+03	 8.971E+02	 1.287E+03	 6.197E+03	 6.644E+02	 6.979E+02	 1.079E+03	 4.800E+02	 8.478E+03	 5.204E+03	 4.291E+03	 5.772E+02	 7.054E+03	 7.758E+03	 4.999E+03	 4.067E+03	 5.193E+03	 4.275E+01	 6.864E+02
  15.375	 0.000E+00	-1.014E+00	 4.182E+00	 2.325E+02	 3.463E+03	 3.446E+03	 8.286E+03	 9.279E+02	 1.327E+03	 6.204E+03	 6.852E+02	 7.238E+02	 1.114E+03	 4.925E+02	 8.490E+03	 5.208E+03	 4.294E+03	 5.935E+02	 7.062E+03	 7.768E+03	 4.998E+03	 4.063E+03	 5.187E+03	 4.275E+01	 6.866E+02
  15.388	 0.000E+00	-1.019E+00	 4.182E+00	 2.326E+02	 3.464E+03	 3.488E+03	 8.288E+03	 9.566E+02	 1.365E+03	 6.210E+03	 7.043E+02	 7.477E+02	 1.147E+03	 5.039E+02	 8.501E+03	 5.212E+03	 4.297E+03	 6.085E+02	 7.070E+03	 7.777E+03	 4.998E+03	 4.060E+03	 5.182E+03	 4.275E+01	 6.867E+02
  15.400	 0.000E+00	-1.025E+00	 4.182E+00	 2.327E+02	 3.466E+03	 3.528E+03	 8.292E+03	 9.834E+02	 1.400E+03	 6.216E+03	 7.220E+02	 7.700E+02	 1.178E+03	 5.142E+02	 8.512E+03	 5.216E+03	 4.299E+03	 6.222E+02	 7.078E+03	 7.787E+03	 4.997E+03	 4.057E+03	 5.178E+03	 4.275E+01	 6.869E+02
  15.413	 0.000E+00	-1.029E+00	 4.182E+00	 2.329E+02	 3.467E+03	 3.565E+03	 8.295E+03	 1.008E+03	 1.433E+03	 6.222E+03	 7.382E+02	 7.904E+02	 1.206E+03	 5.235E+02	 8.522E+03	 5.220E+03	 4.302E+03	 6.346E+02	 7.085E+03	 7.795E+03	 4.996E+03	 4.055E+03	 5.175E+03	 4.275E+01	 6.871E+02
  15.425	 0.000E+00	-1.034E+00	 4.182E+00	 2.330E+02	 3.469E+03	 3.599E+03	 8.298E+03	 1.031E+03	 1.463E+03	 6.228E+03	 7.529E+02	 8.092E+02	 1.233E+03	 5.319E+02	 8.533E+03	 5.224E+03	 4.304E+03	 6.459E+02	 7.093E+03	 7.804E+03	 4.995E+03	 4.054E+03	 5.173E+03	 4.275E+01	 6.873E+02
  15.438	 0.000E+00	-1.038E+00	 4.182E+00	 2.332E+02	 3.470E+03	 3.631E+03	 8.302E+03	 1.052E+03	 1.491E+03	 6.234E+03	 7.662E+02	 8.261E+02	 1.257E+03	 5.393E+02	 8.543E+03	 5.227E+03	 4.306E+03	 6.559E+02	 7.100E+03	 7.813E+03	 4.994E+03	 4.054E+03	 5.172E+03	 4.275E+01	 6.874E+02
  15.450	 0.000E+00	-1.041E+00	 4.183E+00	 2.334E+02	 3.471E+03	 3.661E+03	 8.306E+03	 1.071E+03	 1.517E+03	 6.239E+03	 7.780E+02	 8.415E+02	 1.279E+03	 5.457E+02	 8.553E+03	 5.231E+03	 4.308E+03	 6.648E+02	 7.107E+03	 7.821E+03	 4.994E+03	 4.054E+03	 5.172E+03	 4.275E+01	 6.877E+02
  15.463	 0.000E+00	-1.044E+00	 4.183E+00	 2.336E+02	 3.473E+03	 3.688E+03	 8.310E+03	 1.088E+03	 1.541E+03	 6.244E+03	 7.885E+02	 8.552E+02	 1.299E+03	 5.513E+02	 8.562E+03	 5.234E+03	 4.311E+03	 6.726E+02	 7.113E+03	 7.829E+03	 4.993E+03	 4.055E+03	 5.173E+03	 4.275E+01	 6.879E+02
  15.475	 0.000E+00	-1.047E+00	 4.184E+00	 2.338E+02	 3.474E+03	 3.713E+03	 8.314E+03	 1.103E+03	 1.562E+03	 6.249E+03	 7.978E+02	 8.675E+02	 1.317E+03	 5.561E+02	 8.571E+03	 5.237E+03	 4.313E+03	 6.794E+02	 7.119E+03	 7.836E+03	 4.992E+03	 4.057E+03	 5.174E+03	 4.275E+01	 6.881E+02
  15.488	 0.000E+00	-1.050E+00	 4.185E+00	 2.340E+02	 3.475E+03	 3.735E+03	 8.318E+03	 1.116E+03	 1.582E+03	 6.254E+03	 8.058E+02	 8.781E+02	 1.333E+03	 5.600E+02	 8.580E+03	 5.241E+03	 4.315E+03	 6.851E+02	 7.125E+03	 7.843E+03	 4.991E+03	 4.060E+03	 5.177E+03	 4.275E+01	 6.884E+02
  15.500	 0.000E+00	-1.052E+00	 4.185E+00	 2.342E+02	 3.476E+03	 3.756E+03	 8.323E+03	 1.128E+03	 1.599E+03	 6.258E+03	 8.126E+02	 8.874E+02	 1.348E+03	 5.632E+02	 8.588E+03	 5.244E+03	 4.317E+03	 6.899E+02	 7.131E+03	 7.850E+03	 4.991E+03	 4.063E+03	 5.181E+03	 4.275E+01	 6.887E+02
  15.513	 0.000E+00	-1.054E+00	 4.186E+00	 2.344E+02	 3.478E+03	 3.774E+03	 8.328E+03	 1.139E+03	 1.614E+03	 6.262E+03	 8.182E+02	 8.953E+02	 1.360E+03	 5.657E+02	 8.596E+03	 5.246E+03	 4.319E+03	 6.938E+02	 7.137E+03	 7.857E+03	 4.990E+03	 4.067E+03	 5.185E+03	 4.276E+01	 6.889E+02
  15.525	 0.000E+00	-1.055E+00	 4.187E+00	 2.347E+02	 3.479E+03	 3.791E+03	 8.333E+03	 1.148E+03	 1.628E+03	 6.267E+03	 8.229E+02	 9.020E+02	 1.371E+03	 5.674E+02	 8.604E+03	 5.249E+03	 4.321E+03	 6.968E+02	 7.142E+03	 7.864E+03	 4.990E+03	 4.071E+03	 5.190E+03	 4.276E+01	 6.892E+02
  15.538	 0.000E+00	-1.056E+00	 4.188E+00	 2.349E+02	 3.480E+03	 3.806E+03	 8.338E+03	 1.155E+03	 1.639E+03	 6.270E+03	 8.264E+02	 9.074E+02	 1.381E+03	 5.686E+02	 8.611E+03	 5.252E+03	 4.322E+03	 6.989E+02	 7.147E+03	 7.870E+03	 4.989E+03	 4.076E+03	 5.195E+03	 4.276E+01	 6.895E+02
  15.550	 0.000E+00	-1.057E+00	 4.189E+00	 2.351E+02	 3.481E+03	 3.819E+03	 8.343E+03	 1.161E+03	 1.650E+03	 6.274E+03	 8.291E+02	 9.117E+02	 1.389E+03	 5.691E+02	 8.619E+03	 5.255E+03	 4.324E+03	 7.004E+02	 7.152E+03	 7.876E+03	 4.989E+03	 4.081E+03	 5.202E+03	 4.276E+01	 6.899E+02
  15.562	 0.000E+00	-1.058E+00	 4.191E+00	 2.354E+02	 3.483E+03	 3.830E+03	 8.348E+03	 1.166E+03	 1.658E+03	 6.278E+03	 8.309E+02	 9.149E+02	 1.395E+03	 5.692E+02	 8.626E+03	 5.257E+03	 4.326E+03	 7.011E+02	 7.157E+03	 7.882E+03	 4.988E+03	 4.087E+03	 5.208E+03	 4.276E+01	 6.902E+02
  15.575	 0.000E+00	-1.059E+00	 4.192E+00	 2.356E+02	 3.484E+03	 3.840E+03	 8.353E+03	 1.170E+03	 1.665E+03	 6.281E+03	 8.319E+02	 9.173E+02	 1.401E+03	 5.686E+02	 8.633E+03	 5.260E+03	 4.328E+03	 7.012E+02	 7.161E+03	 7.887E+03	 4.988E+03	 4.092E+03	 5.214E+03	 4.276E+01	 6.906E+02
  15.588	 0.000E+00	-1.059E+00	 4.193E+00	 2.359E+02	 3.485E+03	 3.848E+03	 8.359E+03	 1.173E+03	 1.671E+03	 6.285E+03	 8.322E+02	 9.186E+02	 1.405E+03	 5.676E+02	 8.639E+03	 5.262E+03	 4.329E+03	 7.007E+02	 7.166E+03	 7.893E+03	 4.988E+03	 4.098E+03	 5.221E+03	 4.277E+01	 6.910E+02
  15.600	 0.000E+00	-1.059E+00	 4.195E+00	 2.361E+02	 3.486E+03	 3.855E+03	 8.364E+03	 1.175E+03	 1.676E+03	 6.288E+03	 8.318E+02	 9.193E+02	 1.408E+03	 5.662E+02	 8.646E+03	 5.264E+03	 4.331E+03	 6.996E+02	 7.170E+03	 7.898E+03	 4.987E+03	 4.103E+03	 5.227E+03	 4.277E+01	 6.914E+02
  15.613	 0.000E+00	-1.059E+00	 4.196E+00	 2.364E+02	 3.487E+03	 3.862E+03	 8.370E+03	 1.176E+03	 1.680E+03	 6.291E+03	 8.308E+02	 9.191E+02	 1.410E+03	 5.644E+02	 8.652E+03	 5.266E+03	 4.333E+03	 6.981E+02	 7.174E+03	 7.903E+03	 4.987E+03	 4.109E+03	 5.234E+03	 4.277E+01	 6.918E+02
  15.625	 0.000E+00	-1.059E+00	 4.198E+00	 2.367E+02	 3.488E+03	 3.867E+03	 8.376E+03	 1.176E+03	 1.683E+03	 6.294E+03	 8.294E+02	 9.185E+02	 1.412E+03	 5.622E+02	 8.658E+03	 5.269E+03	 4.334E+03	 6.961E+02	 7.178E+03	 7.908E+03	 4.987E+03	 4.114E+03	 5.240E+03	 4.277E+01	 6.922E+02
  15.638	 0.000E+00	-1.059E+00	 4.199E+00	 2.369E+02	 3.489E+03	 3.871E+03	 8.381E+03	 1.176E+03	 1.685E+03	 6.297E+03	 8.274E+02	 9.172E+02	 1.412E+03	 5.598E+02	 8.664E+03	 5.271E+03	 4.336E+03	 6.938E+02	 7.182E+03	 7.913E+03	 4.987E+03	 4.118E+03	 5.245E+03	 4.277E+01	 6.927E+02
  15.650	 0.000E+00	-1.058E+00	 4.201E+00	 2.372E+02	 3.490E+03	 3.875E+03	 8.387E+03	 1.175E+03	 1.687E+03	 6.300E+03	 8.252E+02	 9.157E+02	 1.413E+03	 5.572E+02	 8.670E+03	 5.273E+03	 4.337E+03	 6.912E+02	 7.186E+03	 7.918E+03	 4.987E+03	 4.123E+03	 5.250E+03	 4.278E+01	 6.932E+02
  15.663	 0.000E+00	-1.058E+00	 4.203E+00	 2.375E+02	 3.492E+03	 3.879E+03	 8.393E+03	 1.174E+03	 1.688E+03	 6.303E+03	 8.227E+02	 9.137E+02	 1.413E+03	 5.544E+02	 8.676E+03	 5.275E+03	 4.339E+03	 6.884E+02	 7.190E+03	 7.923E+03	 4.987E+03	 4.126E+03	 5.254E+03	 4.278E+01	 6.936E+02
  15.675	 0.000E+00	-1.057E+00	 4.205E+00	 2.378E+02	 3.493E+03	 3.882E+03	 8.399E+03	 1.173E+03	 1.689E+03	 6.306E+03	 8.201E+02	 9.117E+02	 1.412E+03	 5.514E+02	 8.682E+03	 5.277E+03	 4.340E+03	 6.855E+02	 7.194E+03	 7.927E+03	 4.987E+03	 4.129E+03	 5.258E+03	 4.278E+01	 6.941E+02
  15.688	 0.000E+00	-1.057E+00	 4.207E+00	 2.381E+02	 3.494E+03	 3.885E+03	 8.405E+03	 1.172E+03	 1.689E+03	 6.309E+03	 8.173E+02	 9.094E+02	 1.412E+03	 5.484E+02	 8.687E+03	 5.279E+03	 4.342E+03	 6.825E+02	 7.198E+03	 7.932E+03	 4.987E+03	 4.132E+03	 5.261E+03	 4.278E+01	 6.946E+02
  15.700	 0.000E+00	-1.056E+00	 4.209E+00	 2.383E+02	 3.495E+03	 3.888E+03	 8.411E+03	 1.170E+03	 1.690E+03	 6.312E+03	 8.146E+02	 9.073E+02	 1.412E+03	 5.455E+02	 8.694E+03	 5.282E+03	 4.344E+03	 6.796E+02	 7.202E+03	 7.937E+03	 4.987E+03	 4.134E+03	 5.263E+03	 4.279E+01	 6.952E+02
  15.713	 0.000E+00	-1.056E+00	 4.211E+00	 2.386E+02	 3.496E+03	 3.891E+03	 8.417E+03	 1.169E+03	 1.691E+03	 6.315E+03	 8.121E+02	 9.053E+02	 1.411E+03	 5.426E+02	 8.700E+03	 5.284E+03	 4.345E+03	 6.767E+02	 7.206E+03	 7.942E+03	 4.987E+03	 4.135E+03	 5.264E+03	 4.279E+01	 6.957E+02
  15.725	 0.000E+00	-1.056E+00	 4.213E+00	 2.389E+02	 3.498E+03	 3.894E+03	 8.424E+03	 1.168E+03	 1.692E+03	 6.319E+03	 8.098E+02	 9.036E+02	 1.411E+03	 5.399E+02	 8.706E+03	 5.287E+03	 4.347E+03	 6.741E+02	 7.210E+03	 7.947E+03	 4.987E+03	 4.136E+03	 5.264E+03	 4.279E+01	 6.963E+02
  15.738	 0.000E+00	-1.055E+00	 4.215E+00	 2.392E+02	 3.499E+03	 3.898E+03	 8.430E+03	 1.168E+03	 1.694E+03	 6.322E+03	 8.077E+02	 9.022E+02	 1.412E+03	 5.375E+02	 8.712E+03	 5.289E+03	 4.349E+03	 6.717E+02	 7.215E+03	 7.953E+03	 4.987E+03	 4.136E+03	 5.264E+03	 4.279E+01	 6.968E+02
  15.750	 0.000E+00	-1.055E+00	 4.217E+00	 2.395E+02	 3.501E+03	 3.903E+03	 8.436E+03	 1.168E+03	 1.696E+03	 6.326E+03	 8.062E+02	 9.013E+02	 1.413E+03	 5.353E+02	 8.719E+03	 5.292E+03	 4.351E+03	 6.698E+02	 7.219E+03	 7.958E+03	 4.987E+03	 4.135E+03	 5.262E+03	 4.279E+01	 6.974E+02
  15.763	 0.000E+00	-1.055E+00	 4.219E+00	 2.398E+02	 3.502E+03	 3.908E+03	 8.443E+03	 1.168E+03	 1.699E+03	 6.330E+03	 8.051E+02	 9.009E+02	 1.414E+03	 5.336E+02	 8.726E+03	 5.295E+03	 4.353E+03	 6.683E+02	 7.224E+03	 7.964E+03	 4.988E+03	 4.133E+03	 5.260E+03	 4.280E+01	 6.979E+02
  15.775	 0.000E+00	-1.055E+00	 4.221E+00	 2.401E+02	 3.504E+03	 3.914E+03	 8.450E+03	 1.170E+03	 1.703E+03	 6.334E+03	 8.047E+02	 9.013E+02	 1.417E+03	 5.323E+02	 8.733E+03	 5.298E+03	 4.356E+03	 6.673E+02	 7.229E+03	 7.970E+03	 4.988E+03	 4.132E+03	 5.257E+03	 4.280E+01	 6.985E+02
  15.788	 0.000E+00	-1.056E+00	 4.224E+00	 2.404E+02	 3.506E+03	 3.921E+03	 8.456E+03	 1.172E+03	 1.707E+03	 6.338E+03	 8.050E+02	 9.024E+02	 1.420E+03	 5.316E+02	 8.741E+03	 5.301E+03	 4.358E+03	 6.670E+02	 7.235E+03	 7.977E+03	 4.988E+03	 4.129E+03	 5.254E+03	 4.280E+01	 6.991E+02
  15.800	 0.000E+00	-1.057E+00	 4.226E+00	 2.407E+02	 3.508E+03	 3.929E+03	 8.463E+03	 1.175E+03	 1.712E+03	 6.343E+03	 8.061E+02	 9.044E+02	 1.424E+03	 5.315E+02	 8.748E+03	 5.304E+03	 4.361E+03	 6.673E+02	 7.240E+03	 7.983E+03	 4.988E+03	 4.126E+03	 5.250E+03	 4.280E+01	 6.997E+02
  15.812	 0.000E+00	-1.057E+00	 4.229E+00	 2.410E+02	 3.510E+03	 3.938E+03	 8.470E+03	 1.179E+03	 1.719E+03	 6.347E+03	 8.079E+02	 9.073E+02	 1.429E+03	 5.320E+02	 8.757E+03	 5.308E+03	 4.363E+03	 6.684E+02	 7.246E+03	 7.990E+03	 4.988E+03	 4.123E+03	 5.245E+03	 4.280E+01	 7.003E+02
  15.825	 0.000E+00	-1.059E+00	 4.231E+00	 2.412E+02	 3.512E+03	 3.948E+03	 8.477E+03	 1.184E+03	 1.727E+03	 6.353E+03	 8.108E+02	 9.112E+02	 1.436E+03	 5.332E+02	 8.765E+03	 5.312E+03	 4.366E+03	 6.703E+02	 7.253E+03	 7.998E+03	 4.988E+03	 4.119E+03	 5.240E+03	 4.281E+01	 7.009E+02
  15.838	 0.000E+00	-1.060E+00	 4.234E+00	 2.415E+02	 3.514E+03	 3.959E+03	 8.484E+03	 1.190E+03	 1.735E+03	 6.358E+03	 8.145E+02	 9.161E+02	 1.443E+03	 5.351E+02	 8.774E+03	 5.316E+03	 4.369E+03	 6.731E+02	 7.259E+03	 8.005E+03	 4.987E+03	 4.115E+03	 5.234E+03	 4.281E+01	 7.015E+02
  15.850	 0.000E+00	-1.062E+00	 4.236E+00	 2.418E+02	 3.517E+03	 3.972E+03	 8.491E+03	 1.198E+03	 1.745E+03	 6.364E+03	 8.193E+02	 9.221E+02	 1.452E+03	 5.378E+02	 8.783E+03	 5.321E+03	 4.373E+03	 6.767E+02	 7.266E+03	 8.013E+03	 4.987E+03	 4.111E+03	 5.229E+03	 4.281E+01	 7.021E+02
  15.863	 0.000E+00	-1.064E+00	 4.239E+00	 2.421E+02	 3.519E+03	 3.986E+03	 8.498E+03	 1.206E+03	 1.757E+03	 6.370E+03	 8.251E+02	 9.292E+02	 1.461E+03	 5.413E+02	 8.793E+03	 5.325E+03	 4.376E+03	 6.812E+02	 7.274E+03	 8.022E+03	 4.987E+03	 4.107E+03	 5.223E+03	 4.281E+01	 7.027E+02
  15.875	 0.000E+00	-1.066E+00	 4.241E+00	 2.424E+02	 3.522E+03	 4.002E+03	 8.505E+03	 1.216E+03	 1.769E+03	 6.376E+03	 8.318E+02	 9.375E+02	 1.472E+03	 5.455E+02	 8.802E+03	 5.330E+03	 4.380E+03	 6.867E+02	 7.281E+03	 8.030E+03	 4.987E+03	 4.102E+03	 5.217E+03	 4.282E+01	 7.034E+02
  15.888	 0.000E+00	-1.069E+00	 4.244E+00	 2.427E+02	 3.525E+03	 4.018E+03	 8.512E+03	 1.227E+03	 1.783E+03	 6.383E+03	 8.396E+02	 9.468E+02	 1.485E+03	 5.506E+02	 8.813E+03	 5.335E+03	 4.384E+03	 6.930E+02	 7.289E+03	 8.039E+03	 4.987E+03	 4.098E+03	 5.211E+03	 4.282E+01	 7.040E+02
  15.900	 0.000E+00	-1.072E+00	 4.247E+00	 2.430E+02	 3.528E+03	 4.036E+03	 8.519E+03	 1.239E+03	 1.798E+03	 6.390E+03	 8.484E+02	 9.572E+02	 1.498E+03	 5.564E+02	 8.823E+03	 5.341E+03	 4.388E+03	 7.003E+02	 7.297E+03	 8.049E+03	 4.986E+03	 4.094E+03	 5.205E+03	 4.282E+01	 7.046E+02
  15.913	 0.000E+00	-1.075E+00	 4.250E+00	 2.433E+02	 3.531E+03	 4.055E+03	 8.527E+03	 1.252E+03	 1.814E+03	 6.397E+03	 8.582E+02	 9.686E+02	 1.513E+03	 5.629E+02	 8.834E+03	 5.346E+03	 4.392E+03	 7.084E+02	 7.306E+03	 8.058E+03	 4.986E+03	 4.090E+03	 5.199E+03	 4.282E+01	 7.052E+02
  15.925	 0.000E+00	-1.079E+00	 4.253E+00	 2.436E+02	 3.535E+03	 4.076E+03	 8.534E+03	 1.266E+03	 1.831E+03	 6.405E+03	 8.689E+02	 9.811E+02	 1.529E+03	 5.702E+02	 8.845E+03	 5.352E+03	 4.397E+03	 7.173E+02	 7.315E+03	 8.068E+03	 4.986E+03	 4.086E+03	 5.194E+03	 4.282E+01	 7.058E+02
  15.938	 0.000E+00	-1.082E+00	 4.256E+00	 2.438E+02	 3.538E+03	 4.097E+03	 8.541E+03	 1.282E+03	 1.850E+03	 6.412E+03	 8.804E+02	 9.945E+02	 1.545E+03	 5.781E+02	 8.856E+03	 5.358E+03	 4.401E+03	 7.270E+02	 7.324E+03	 8.078E+03	 4.985E+03	 4.083E+03	 5.189E+03	 4.283E+01	 7.065E+02
  15.950	 0.000E+00	-1.086E+00	 4.259E+00	 2.441E+02	 3.542E+03	 4.120E+03	 8.549E+03	 1.298E+03	 1.869E+03	 6.420E+03	 8.927E+02	 1.009E+03	 1.563E+03	 5.866E+02	 8.868E+03	 5.364E+03	 4.406E+03	 7.373E+02	 7.333E+03	 8.089E+03	 4.985E+03	 4.080E+03	 5.185E+03	 4.283E+01	 7.071E+02
  15.963	 0.000E+00	-1.091E+00	 4.262E+00	 2.444E+02	 3.545E+03	 4.143E+03	 8.556E+03	 1.315E+03	 1.889E+03	 6.429E+03	 9.057E+02	 1.024E+03	 1.581E+03	 5.957E+02	 8.880E+03	 5.371E+03	 4.411E+03	 7.484E+02	 7.342E+03	 8.099E+03	 4.984E+03	 4.078E+03	 5.181E+03	 4.283E+01	 7.077E+02
  15.975	 0.000E+00	-1.095E+00	 4.266E+00	 2.447E+02	 3.549E+03	 4.167E+03	 8.563E+03	 1.332E+03	 1.910E+03	 6.437E+03	 9.194E+02	 1.039E+03	 1.601E+03	 6.052E+02	 8.892E+03	 5.377E+03	 4.416E+03	 7.599E+02	 7.352E+03	 8.110E+03	 4.984E+03	 4.076E+03	 5.178E+03	 4.283E+01	 7.084E+02
  15.988	 0.000E+00	-1.099E+00	 4.269E+00	 2.450E+02	 3.553E+03	 4.192E+03	 8.570E+03	 1.351E+03	 1.932E+03	 6.446E+03	 9.335E+02	 1.056E+03	 1.621E+03	 6.152E+02	 8.904E+03	 5.384E+03	 4.421E+03	 7.720E+02	 7.362E+03	 8.121E+03	 4.983E+03	 4.074E+03	 5.176E+03	 4.284E+01	 7.090E+02
  16.000	 0.000E+00	-1.104E+00	 4.272E+00	 2.452E+02	 3.557E+03	 4.217E+03	 8.578E+03	 1.369E+03	 1.954E+03	 6.454E+03	 9.481E+02	 1.072E+03	 1.641E+03	 6.255E+02	 8.916E+03	 5.391E+03	 4.427E+03	 7.844E+02	 7.372E+03	 8.132E+03	 4.983E+03	 4.073E+03	 5.174E+03	 4.284E+01	 7.096E+02
  16.012	 0.000E+00	-1.109E+00	 4.276E+00	 2.455E+02	 3.561E+03	 4.242E+03	 8.585E+03	 1.388E+03	 1.976E+03	 6.463E+03	 9.630E+02	 1.089E+03	 1.662E+03	 6.360E+02	 8.929E+03	 5.398E+03	 4.432E+03	 7.971E+02	 7.382E+03	 8.144E+03	 4.983E+03	 4.073E+03	 5.173E+03	 4.284E+01	 7.102E+02
  16.025	 0.000E+00	-1.114E+00	 4.279E+00	 2.458E+02	 3.565E+03	 4.268E+03	 8.593E+03	 1.408E+03	 1.998E+03	 6.472E+03	 9.781E+02	 1.107E+03	 1.682E+03	 6.467E+02	 8.941E+03	 5.405E+03	 4.437E+03	 8.100E+02	 7.392E+03	 8.155E+03	 4.982E+03	 4.073E+03	 5.173E+03	 4.285E+01	 7.108E+02
  16.038	 0.000E+00	-1.119E+00	 4.283E+00	 2.461E+02	 3.569E+03	 4.294E+03	 8.600E+03	 1.427E+03	 2.021E+03	 6.481E+03	 9.933E+02	 1.124E+03	 1.703E+03	 6.575E+02	 8.954E+03	 5.412E+03	 4.443E+03	 8.229E+02	 7.403E+03	 8.166E+03	 4.982E+03	 4.074E+03	 5.174E+03	 4.285E+01	 7.115E+02
  16.050	 0.000E+00	-1.123E+00	 4.287E+00	 2.463E+02	 3.574E+03	 4.319E+03	 8.608E+03	 1.446E+03	 2.043E+03	 6.490E+03	 1.009E+03	 1.141E+03	 1.724E+03	 6.683E+02	 8.966E+03	 5.419E+03	 4.448E+03	 8.359E+02	 7.413E+03	 8.178E+03	 4.981E+03	 4.076E+03	 5.175E+03	 4.285E+01	 7.121E+02
  16.062	 0.000E+00	-1.128E+00	 4.291E+00	 2.466E+02	 3.578E+03	 4.344E+03	 8.615E+03	 1.465E+03	 2.065E+03	 6.499E+03	 1.024E+03	 1.158E+03	 1.745E+03	 6.791E+02	 8.979E+03	 5.426E+03	 4.454E+03	 8.488E+02	 7.423E+03	 8.189E+03	 4.981E+03	 4.078E+03	 5.177E+03	 4.285E+01	 7.127E+02
  16.075	 0.000E+00	-1.133E+00	 4.295E+00	 2.469E+02	 3.582E+03	 4.369E+03	 8.623E+03	 1.484E+03	 2.087E+03	 6.508E+03	 1.038E+03	 1.175E+03	 1.765E+03	 6.897E+02	 8.991E+03	 5.433E+03	 4.460E+03	 8.615E+02	 7.434E+03	 8.200E+03	 4.980E+03	 4.081E+03	 5.180E+03	 4.286E+01	 7.133E+02
  16.088	 0.000E+00	-1.138E+00	 4.299E+00	 2.472E+02	 3.587E+03	 4.393E+03	 8.630E+03	 1.502E+03	 2.107E+03	 6.517E+03	 1.053E+03	 1.191E+03	 1.784E+03	 7.001E+02	 9.004E+03	 5.440E+03	 4.465E+03	 8.740E+02	 7.444E+03	 8.212E+03	 4.980E+03	 4.084E+03	 5.184E+03	 4.286E+01	 7.139E+02
  16.100	 0.000E+00	-1.142E+00	 4.303E+00	 2.474E+02	 3.591E+03	 4.415E+03	 8.638E+03	 1.519E+03	 2.127E+03	 6.526E+03	 1.067E+03	 1.207E+03	 1.803E+03	 7.102E+02	 9.016E+03	 5.447E+03	 4.471E+03	 8.860E+02	 7.454E+03	 8.223E+03	 4.980E+03	 4.088E+03	 5.188E+03	 4.286E+01	 7.145E+02
  16.113	 0.000E+00	-1.147E+00	 4.307E+00	 2.477E+02	 3.595E+03	 4.437E+03	 8.646E+03	 1.535E+03	 2.146E+03	 6.535E+03	 1.080E+03	 1.222E+03	 1.820E+03	 7.199E+02	 9.028E+03	 5.454E+03	 4.476E+03	 8.975E+02	 7.464E+03	 8.234E+03	 4.979E+03	 4.092E+03	 5.192E+03	 4.287E+01	 7.151E+02
  16.125	 0.000E+00	-1.151E+00	 4.311E+00	 2.480E+02	 3.600E+03	 4.457E+03	 8.654E+03	 1.551E+03	 2.163E+03	 6.543E+03	 1.093E+03	 1.236E+03	 1.837E+03	 7.292E+02	 9.040E+03	 5.461E+03	 4.482E+03	 9.085E+02	 7.474E+03	 8.245E+03	 4.979E+03	 4.096E+03	 5.198E+03	 4.287E+01	 7.156E+02
  16.137	 0.000E+00	-1.155E+00	 4.316E+00	 2.483E+02	 3.604E+03	 4.476E+03	 8.662E+03	 1.565E+03	 2.179E+03	 6.552E+03	 1.104E+03	 1.249E+03	 1.852E+03	 7.379E+02	 9.052E+03	 5.468E+03	 4.488E+03	 9.188E+02	 7.484E+03	 8.255E+03	 4.979E+03	 4.101E+03	 5.203E+03	 4.287E+01	 7.162E+02
  16.150	 0.000E+00	-1.159E+00	 4.320E+00	 2.486E+02	 3.608E+03	 4.492E+03	 8.670E+03	 1.578E+03	 2.193E+03	 6.560E+03	 1.115E+03	 1.261E+03	 1.865E+03	 7.460E+02	 9.063E+03	 5.475E+03	 4.493E+03	 9.283E+02	 7.493E+03	 8.266E+03	 4.979E+03	 4.106E+03	 5.209E+03	 4.288E+01	 7.168E+02
  16.163	 0.000E+00	-1.162E+00	 4.324E+00	 2.489E+02	 3.613E+03	 4.507E+03	 8.678E+03	 1.589E+03	 2.205E+03	 6.569E+03	 1.125E+03	 1.272E+03	 1.877E+03	 7.535E+02	 9.074E+03	 5.482E+03	 4.498E+03	 9.369E+02	 7.502E+03	 8.276E+03	 4.979E+03	 4.111E+03	 5.215E+03	 4.288E+01	 7.174E+02
  16.175	 0.000E+00	-1.165E+00	 4.329E+00	 2.492E+02	 3.617E+03	 4.520E+03	 8.687E+03	 1.599E+03	 2.216E+03	 6.577E+03	 1.133E+03	 1.281E+03	 1.887E+03	 7.602E+02	 9.084E+03	 5.488E+03	 4.504E+03	 9.447E+02	 7.511E+03	 8.286E+03	 4.979E+03	 4.116E+03	 5.220E+03	 4.289E+01	 7.180E+02
  16.188	 0.000E+00	-1.168E+00	 4.333E+00	 2.495E+02	 3.621E+03	 4.530E+03	 8.695E+03	 1.607E+03	 2.224E+03	 6.584E+03	 1.141E+03	 1.288E+03	 1.895E+03	 7.661E+02	 9.095E+03	 5.495E+03	 4.509E+03	 9.513E+02	 7.520E+03	 8.295E+03	 4.979E+03	 4.121E+03	 5.226E+03	 4.289E+01	 7.186E+02
  16.200	 0.000E+00	-1.170E+00	 4.338E+00	 2.498E+02	 3.625E+03	 4.538E+03	 8.703E+03	 1.613E+03	 2.230E+03	 6.592E+03	 1.147E+03	 1.294E+03	 1.901E+03	 7.711E+02	 9.104E+03	 5.501E+03	 4.514E+03	 9.569E+02	 7.528E+03	 8.304E+03	 4.979E+03	 4.126E+03	 5.232E+03	 4.289E+01	 7.191E+02
  16.213	 0.000E+00	-1.172E+00	 4.342E+00	 2.501E+02	 3.629E+03	 4.543E+03	 8.712E+03	 1.617E+03	 2.233E+03	 6.599E+03	 1.151E+03	 1.299E+03	 1.905E+03	 7.751E+02	 9.113E+03	 5.507E+03	 4.519E+03	 9.612E+02	 7.536E+03	 8.312E+03	 4.979E+03	 4.130E+03	 5.237E+03	 4.290E+01	 7.197E+02
  16.225	 0.000E+00	-1.174E+00	 4.347E+00	 2.504E+02	 3.633E+03	 4.545E+03	 8.721E+03	 1.619E+03	 2.234E+03	 6.605E+03	 1.154E+03	 1.301E+03	 1.906E+03	 7.781E+02	 9.122E+03	 5.513E+03	 4.524E+03	 9.642E+02	 7.543E+03	 8.321E+03	 4.979E+03	 4.135E+03	 5.243E+03	 4.290E+01	 7.203E+02
  16.238	 0.000E+00	-1.175E+00	 4.352E+00	 2.508E+02	 3.637E+03	 4.545E+03	 8.729E+03	 1.619E+03	 2.232E+03	 6.612E+03	 1.155E+03	 1.301E+03	 1.905E+03	 7.799E+02	 9.130E+03	 5.518E+03	 4.528E+03	 9.659E+02	 7.550E+03	 8.328E+03	 4.979E+03	 4.139E+03	 5.247E+03	 4.290E+01	 7.209E+02
  16.250	 0.000E+00	-1.175E+00	 4.356E+00	 2.511E+02	 3.640E+03	 4.541E+03	 8.738E+03	 1.616E+03	 2.227E+03	 6.618E+03	 1.155E+03	 1.300E+03	 1.902E+03	 7.806E+02	 9.138E+03	 5.523E+03	 4.533E+03	 9.662E+02	 7.557E+03	 8.335E+03	 4.979E+03	 4.142E+03	 5.252E+03	 4.291E+01	 7.214E+02
  16.262	 0.000E+00	-1.175E+00	 4.361E+00	 2.514E+02	 3.644E+03	 4.535E+03	 8.747E+03	 1.611E+03	 2.219E+03	 6.623E+03	 1.152E+03	 1.296E+03	 1.896E+03	 7.802E+02	 9.144E+03	 5.528E+03	 4.537E+03	 9.649E+02	 7.563E+03	 8.341E+03	 4.980E+03	 4.146E+03	 5.255E+03	 4.291E+01	 7.220E+02
  16.275	 0.000E+00	-1.175E+00	 4.366E+00	 2.517E+02	 3.647E+03	 4.525E+03	 8.756E+03	 1.604E+03	 2.209E+03	 6.628E+03	 1.148E+03	 1.290E+03	 1.887E+03	 7.784E+02	 9.150E+03	 5.533E+03	 4.541E+03	 9.622E+02	 7.568E+03	 8.347E+03	 4.980E+03	 4.148E+03	 5.258E+03	 4.291E+01	 7.226E+02
  16.288	 0.000E+00	-1.174E+00	 4.370E+00	 2.520E+02	 3.651E+03	 4.512E+03	 8.764E+03	 1.594E+03	 2.195E+03	 6.633E+03	 1.142E+03	 1.282E+03	 1.875E+03	 7.754E+02	 9.156E+03	 5.537E+03	 4.545E+03	 9.578E+02	 7.573E+03	 8.352E+03	 4.980E+03	 4.150E+03	 5.261E+03	 4.292E+01	 7.231E+02
  16.300	 0.000E+00	-1.172E+00	 4.375E+00	 2.524E+02	 3.654E+03	 4.496E+03	 8.773E+03	 1.581E+03	 2.179E+03	 6.637E+03	 1.134E+03	 1.272E+03	 1.861E+03	 7.711E+02	 9.161E+03	 5.541E+03	 4.548E+03	 9.519E+02	 7.577E+03	 8.357E+03	 4.980E+03	 4.152E+03	 5.262E+03	 4.292E+01	 7.237E+02
  16.312	 0.000E+00	-1.170E+00	 4.379E+00	 2.527E+02	 3.657E+03	 4.476E+03	 8.782E+03	 1.566E+03	 2.159E+03	 6.640E+03	 1.125E+03	 1.259E+03	 1.844E+03	 7.655E+02	 9.165E+03	 5.544E+03	 4.552E+03	 9.443E+02	 7.581E+03	 8.361E+03	 4.981E+03	 4.153E+03	 5.263E+03	 4.292E+01	 7.242E+02
  16.325	 0.000E+00	-1.168E+00	 4.384E+00	 2.530E+02	 3.659E+03	 4.454E+03	 8.790E+03	 1.549E+03	 2.137E+03	 6.643E+03	 1.113E+03	 1.245E+03	 1.824E+03	 7.585E+02	 9.168E+03	 5.547E+03	 4.555E+03	 9.352E+02	 7.584E+03	 8.364E+03	 4.981E+03	 4.154E+03	 5.264E+03	 4.293E+01	 7.248E+02
  16.338	 0.000E+00	-1.165E+00	 4.389E+00	 2.533E+02	 3.662E+03	 4.428E+03	 8.799E+03	 1.529E+03	 2.111E+03	 6.645E+03	 1.099E+03	 1.228E+03	 1.801E+03	 7.502E+02	 9.170E+03	 5.550E+03	 4.557E+03	 9.244E+02	 7.587E+03	 8.366E+03	 4.981E+03	 4.153E+03	 5.263E+03	 4.293E+01	 7.253E+02
  16.350	 0.000E+00	-1.161E+00	 4.393E+00	 2.537E+02	 3.664E+03	 4.399E+03	 8.807E+03	 1.507E+03	 2.083E+03	 6.647E+03	 1.084E+03	 1.209E+03	 1.776E+03	 7.406E+02	 9.172E+03	 5.552E+03	 4.560E+03	 9.121E+02	 7.588E+03	 8.368E+03	 4.981E+03	 4.153E+03	 5.262E+03	 4.293E+01	 7.258E+02
  16.363	 0.000E+00	-1.157E+00	 4.397E+00	 2.540E+02	 3.666E+03	 4.367E+03	 8.815E+03	 1.482E+03	 2.052E+03	 6.648E+03	 1.066E+03	 1.188E+03	 1.748E+03	 7.298E+02	 9.172E+03	 5.554E+03	 4.562E+03	 8.982E+02	 7.589E+03	 8.369E+03	 4.982E+03	 4.152E+03	 5.260E+03	 4.294E+01	 7.263E+02
  16.375	 0.000E+00	-1.152E+00	 4.402E+00	 2.543E+02	 3.668E+03	 4.333E+03	 8.823E+03	 1.455E+03	 2.018E+03	 6.649E+03	 1.047E+03	 1.164E+03	 1.718E+03	 7.177E+02	 9.172E+03	 5.555E+03	 4.563E+03	 8.829E+02	 7.590E+03	 8.369E+03	 4.982E+03	 4.150E+03	 5.258E+03	 4.294E+01	 7.268E+02
  16.387	 0.000E+00	-1.147E+00	 4.406E+00	 2.546E+02	 3.669E+03	 4.295E+03	 8.831E+03	 1.426E+03	 1.981E+03	 6.649E+03	 1.027E+03	 1.139E+03	 1.685E+03	 7.045E+02	 9.172E+03	 5.556E+03	 4.565E+03	 8.661E+02	 7.590E+03	 8.369E+03	 4.982E+03	 4.148E+03	 5.255E+03	 4.294E+01	 7.273E+02
  16.400	 0.000E+00	-1.141E+00	 4.410E+00	 2.549E+02	 3.671E+03	 4.254E+03	 8.839E+03	 1.395E+03	 1.943E+03	 6.648E+03	 1.004E+03	 1.112E+03	 1.650E+03	 6.902E+02	 9.170E+03	 5.557E+03	 4.566E+03	 8.480E+02	 7.589E+03	 8.368E+03	 4.982E+03	 4.145E+03	 5.251E+03	 4.294E+01	 7.277E+02
  16.413	 0.000E+00	-1.135E+00	 4.414E+00	 2.553E+02	 3.672E+03	 4.211E+03	 8.847E+03	 1.361E+03	 1.901E+03	 6.647E+03	 9.804E+02	 1.083E+03	 1.613E+03	 6.748E+02	 9.168E+03	 5.557E+03	 4.567E+03	 8.287E+02	 7.587E+03	 8.366E+03	 4.982E+03	 4.142E+03	 5.247E+03	 4.295E+01	 7.281E+02
  16.425	 0.000E+00	-1.128E+00	 4.418E+00	 2.556E+02	 3.673E+03	 4.166E+03	 8.854E+03	 1.326E+03	 1.858E+03	 6.646E+03	 9.553E+02	 1.053E+03	 1.574E+03	 6.585E+02	 9.165E+03	 5.557E+03	 4.567E+03	 8.082E+02	 7.585E+03	 8.363E+03	 4.982E+03	 4.139E+03	 5.243E+03	 4.295E+01	 7.285E+02
  16.438	 0.000E+00	-1.121E+00	 4.422E+00	 2.559E+02	 3.674E+03	 4.118E+03	 8.861E+03	 1.289E+03	 1.812E+03	 6.644E+03	 9.288E+02	 1.021E+03	 1.533E+03	 6.414E+02	 9.161E+03	 5.556E+03	 4.567E+03	 7.866E+02	 7.583E+03	 8.360E+03	 4.983E+03	 4.136E+03	 5.238E+03	 4.295E+01	 7.289E+02
  16.450	 0.000E+00	-1.114E+00	 4.426E+00	 2.561E+02	 3.674E+03	 4.068E+03	 8.868E+03	 1.251E+03	 1.764E+03	 6.641E+03	 9.012E+02	 9.882E+02	 1.490E+03	 6.235E+02	 9.157E+03	 5.555E+03	 4.567E+03	 7.642E+02	 7.580E+03	 8.356E+03	 4.983E+03	 4.133E+03	 5.234E+03	 4.296E+01	 7.293E+02
  16.463	 0.000E+00	-1.106E+00	 4.429E+00	 2.564E+02	 3.675E+03	 4.016E+03	 8.875E+03	 1.211E+03	 1.715E+03	 6.638E+03	 8.726E+02	 9.537E+02	 1.446E+03	 6.050E+02	 9.152E+03	 5.554E+03	 4.567E+03	 7.409E+02	 7.576E+03	 8.352E+03	 4.983E+03	 4.129E+03	 5.229E+03	 4.296E+01	 7.296E+02
  16.475	 0.000E+00	-1.098E+00	 4.433E+00	 2.567E+02	 3.675E+03	 3.963E+03	 8.881E+03	 1.170E+03	 1.664E+03	 6.635E+03	 8.432E+02	 9.184E+02	 1.400E+03	 5.859E+02	 9.146E+03	 5.552E+03	 4.567E+03	 7.169E+02	 7.572E+03	 8.347E+03	 4.983E+03	 4.126E+03	 5.224E+03	 4.296E+01	 7.299E+02
  16.488	 0.000E+00	-1.090E+00	 4.436E+00	 2.570E+02	 3.675E+03	 3.908E+03	 8.887E+03	 1.128E+03	 1.612E+03	 6.631E+03	 8.130E+02	 8.820E+02	 1.354E+03	 5.664E+02	 9.140E+03	 5.550E+03	 4.566E+03	 6.923E+02	 7.567E+03	 8.342E+03	 4.982E+03	 4.123E+03	 5.220E+03	 4.297E+01	 7.302E+02
  16.500	 0.000E+00	-1.082E+00	 4.440E+00	 2.572E+02	 3.675E+03	 3.852E+03	 8.893E+03	 1.086E+03	 1.559E+03	 6.627E+03	 7.823E+02	 8.451E+02	 1.306E+03	 5.465E+02	 9.133E+03	 5.548E+03	 4.565E+03	 6.673E+02	 7.562E+03	 8.336E+03	 4.982E+03	 4.120E+03	 5.215E+03	 4.297E+01	 7.305E+02
  16.512	 0.000E+00	-1.073E+00	 4.443E+00	 2.575E+02	 3.675E+03	 3.795E+03	 8.898E+03	 1.042E+03	 1.505E+03	 6.623E+03	 7.510E+02	 8.075E+02	 1.257E+03	 5.263E+02	 9.125E+03	 5.546E+03	 4.564E+03	 6.419E+02	 7.556E+03	 8.329E+03	 4.982E+03	 4.117E+03	 5.211E+03	 4.297E+01	 7.307E+02
  16.525	 0.000E+00	-1.065E+00	 4.446E+00	 2.577E+02	 3.674E+03	 3.737E+03	 8.903E+03	 9.983E+02	 1.451E+03	 6.618E+03	 7.196E+02	 7.696E+02	 1.208E+03	 5.060E+02	 9.118E+03	 5.543E+03	 4.562E+03	 6.163E+02	 7.551E+03	 8.323E+03	 4.982E+03	 4.114E+03	 5.208E+03	 4.297E+01	 7.309E+02
  16.538	 0.000E+00	-1.056E+00	 4.448E+00	 2.580E+02	 3.674E+03	 3.678E+03	 8.908E+03	 9.539E+02	 1.395E+03	 6.613E+03	 6.878E+02	 7.313E+02	 1.159E+03	 4.856E+02	 9.109E+03	 5.540E+03	 4.561E+03	 5.906E+02	 7.544E+03	 8.315E+03	 4.982E+03	 4.112E+03	 5.205E+03	 4.298E+01	 7.312E+02
  16.550	 0.000E+00	-1.047E+00	 4.451E+00	 2.582E+02	 3.673E+03	 3.619E+03	 8.913E+03	 9.095E+02	 1.340E+03	 6.607E+03	 6.561E+02	 6.930E+02	 1.109E+03	 4.652E+02	 9.101E+03	 5.537E+03	 4.559E+03	 5.648E+02	 7.538E+03	 8.308E+03	 4.982E+03	 4.111E+03	 5.203E+03	 4.298E+01	 7.313E+02
  16.562	 0.000E+00	-1.038E+00	 4.453E+00	 2.584E+02	 3.672E+03	 3.559E+03	 8.917E+03	 8.649E+02	 1.284E+03	 6.602E+03	 6.244E+02	 6.547E+02	 1.059E+03	 4.450E+02	 9.092E+03	 5.534E+03	 4.557E+03	 5.392E+02	 7.531E+03	 8.300E+03	 4.981E+03	 4.110E+03	 5.201E+03	 4.298E+01	 7.315E+02
  16.575	 0.000E+00	-1.029E+00	 4.456E+00	 2.586E+02	 3.671E+03	 3.500E+03	 8.921E+03	 8.206E+02	 1.228E+03	 6.596E+03	 5.930E+02	 6.166E+02	 1.009E+03	 4.249E+02	 9.082E+03	 5.530E+03	 4.555E+03	 5.137E+02	 7.524E+03	 8.292E+03	 4.981E+03	 4.109E+03	 5.200E+03	 4.299E+01	 7.316E+02
  16.588	 0.000E+00	-1.021E+00	 4.458E+00	 2.588E+02	 3.670E+03	 3.440E+03	 8.924E+03	 7.764E+02	 1.173E+03	 6.590E+03	 5.617E+02	 5.787E+02	 9.597E+02	 4.051E+02	 9.073E+03	 5.527E+03	 4.553E+03	 4.885E+02	 7.517E+03	 8.284E+03	 4.981E+03	 4.109E+03	 5.199E+03	 4.299E+01	 7.318E+02
  16.600	 0.000E+00	-1.012E+00	 4.460E+00	 2.590E+02	 3.669E+03	 3.381E+03	 8.927E+03	 7.328E+02	 1.118E+03	 6.584E+03	 5.309E+02	 5.413E+02	 9.107E+02	 3.855E+02	 9.063E+03	 5.523E+03	 4.551E+03	 4.637E+02	 7.509E+03	 8.275E+03	 4.981E+03	 4.109E+03	 5.199E+03	 4.299E+01	 7.319E+02
  16.613	 0.000E+00	-1.003E+00	 4.462E+00	 2.592E+02	 3.668E+03	 3.323E+03	 8.930E+03	 6.896E+02	 1.063E+03	 6.578E+03	 5.005E+02	 5.043E+02	 8.620E+02	 3.664E+02	 9.053E+03	 5.519E+03	 4.549E+03	 4.393E+02	 7.502E+03	 8.267E+03	 4.980E+03	 4.111E+03	 5.200E+03	 4.300E+01	 7.320E+02
  16.625	 0.000E+00	-9.950E-01	 4.463E+00	 2.594E+02	 3.667E+03	 3.265E+03	 8.933E+03	 6.472E+02	 1.010E+03	 6.572E+03	 4.708E+02	 4.681E+02	 8.143E+02	 3.477E+02	 9.043E+03	 5.515E+03	 4.547E+03	 4.154E+02	 7.494E+03	 8.258E+03	 4.980E+03	 4.112E+03	 5.202E+03	 4.300E+01	 7.320E+02
  16.637	 0.000E+00	-9.867E-01	 4.465E+00	 2.595E+02	 3.666E+03	 3.208E+03	 8.935E+03	 6.054E+02	 9.568E+02	 6.565E+03	 4.416E+02	 4.324E+02	 7.671E+02	 3.294E+02	 9.033E+03	 5.511E+03	 4.544E+03	 3.920E+02	 7.487E+03	 8.249E+03	 4.980E+03	 4.114E+03	 5.204E+03	 4.300E+01	 7.321E+02
  16.650	 0.000E+00	-9.786E-01	 4.466E+00	 2.597E+02	 3.664E+03	 3.152E+03	 8.937E+03	 5.646E+02	 9.049E+02	 6.559E+03	 4.132E+02	 3.977E+02	 7.210E+02	 3.117E+02	 9.022E+03	 5.507E+03	 4.542E+03	 3.693E+02	 7.479E+03	 8.240E+03	 4.980E+03	 4.117E+03	 5.207E+03	 4.301E+01	 7.321E+02
  16.663	 0.000E+00	-9.707E-01	 4.468E+00	 2.598E+02	 3.663E+03	 3.096E+03	 8.939E+03	 5.247E+02	 8.539E+02	 6.553E+03	 3.855E+02	 3.637E+02	 6.758E+02	 2.945E+02	 9.012E+03	 5.503E+03	 4.539E+03	 3.473E+02	 7.471E+03	 8.231E+03	 4.980E+03	 4.120E+03	 5.211E+03	 4.301E+01	 7.322E+02
  16.675	 0.000E+00	-9.629E-01	 4.469E+00	 2.599E+02	 3.662E+03	 3.042E+03	 8.940E+03	 4.858E+02	 8.042E+02	 6.546E+03	 3.587E+02	 3.308E+02	 6.318E+02	 2.780E+02	 9.002E+03	 5.499E+03	 4.537E+03	 3.259E+02	 7.464E+03	 8.222E+03	 4.980E+03	 4.124E+03	 5.215E+03	 4.301E+01	 7.322E+02
  16.688	 0.000E+00	-9.554E-01	 4.470E+00	 2.600E+02	 3.660E+03	 2.990E+03	 8.941E+03	 4.480E+02	 7.557E+02	 6.540E+03	 3.327E+02	 2.988E+02	 5.889E+02	 2.620E+02	 8.991E+03	 5.495E+03	 4.534E+03	 3.053E+02	 7.456E+03	 8.213E+03	 4.980E+03	 4.128E+03	 5.220E+03	 4.302E+01	 7.322E+02
  16.700	 0.000E+00	-9.482E-01	 4.471E+00	 2.601E+02	 3.659E+03	 2.938E+03	 8.942E+03	 4.114E+02	 7.085E+02	 6.534E+03	 3.077E+02	 2.679E+02	 5.473E+02	 2.467E+02	 8.981E+03	 5.491E+03	 4.532E+03	 2.855E+02	 7.448E+03	 8.204E+03	 4.980E+03	 4.132E+03	 5.225E+03	 4.302E+01	 7.322E+02
  16.713	 0.000E+00	-9.411E-01	 4.472E+00	 2.603E+02	 3.657E+03	 2.888E+03	 8.942E+03	 3.759E+02	 6.626E+02	 6.528E+03	 2.836E+02	 2.380E+02	 5.069E+02	 2.321E+02	 8.971E+03	 5.487E+03	 4.530E+03	 2.665E+02	 7.441E+03	 8.196E+03	 4.980E+03	 4.136E+03	 5.230E+03	 4.302E+01	 7.322E+02
  16.725	 0.000E+00	-9.344E-01	 4.473E+00	 2.603E+02	 3.656E+03	 2.840E+03	 8.943E+03	 3.418E+02	 6.182E+02	 6.522E+03	 2.605E+02	 2.093E+02	 4.679E+02	 2.182E+02	 8.961E+03	 5.483E+03	 4.527E+03	 2.483E+02	 7.433E+03	 8.187E+03	 4.980E+03	 4.141E+03	 5.236E+03	 4.303E+01	 7.321E+02
  16.738	 0.000E+00	-9.278E-01	 4.473E+00	 2.604E+02	 3.655E+03	 2.792E+03	 8.943E+03	 3.088E+02	 5.752E+02	 6.516E+03	 2.383E+02	 1.816E+02	 4.302E+02	 2.049E+02	 8.951E+03	 5.480E+03	 4.525E+03	 2.309E+02	 7.426E+03	 8.178E+03	 4.980E+03	 4.146E+03	 5.242E+03	 4.303E+01	 7.321E+02
  16.750	 0.000E+00	-9.216E-01	 4.474E+00	 2.605E+02	 3.653E+03	 2.747E+03	 8.943E+03	 2.771E+02	 5.336E+02	 6.510E+03	 2.172E+02	 1.552E+02	 3.938E+02	 1.924E+02	 8.941E+03	 5.476E+03	 4.522E+03	 2.145E+02	 7.419E+03	 8.170E+03	 4.980E+03	 4.151E+03	 5.248E+03	 4.303E+01	 7.320E+02
  16.762	 0.000E+00	-9.156E-01	 4.474E+00	 2.606E+02	 3.652E+03	 2.703E+03	 8.943E+03	 2.467E+02	 4.935E+02	 6.505E+03	 1.971E+02	 1.299E+02	 3.589E+02	 1.806E+02	 8.932E+03	 5.472E+03	 4.520E+03	 1.988E+02	 7.412E+03	 8.162E+03	 4.980E+03	 4.156E+03	 5.254E+03	 4.304E+01	 7.320E+02
  16.775	 0.000E+00	-9.100E-01	 4.475E+00	 2.606E+02	 3.651E+03	 2.660E+03	 8.943E+03	 2.176E+02	 4.549E+02	 6.499E+03	 1.780E+02	 1.057E+02	 3.253E+02	 1.695E+02	 8.923E+03	 5.469E+03	 4.518E+03	 1.841E+02	 7.405E+03	 8.154E+03	 4.980E+03	 4.161E+03	 5.260E+03	 4.304E+01	 7.319E+02
  16.788	 0.000E+00	-9.045E-01	 4.475E+00	 2.607E+02	 3.649E+03	 2.619E+03	 8.943E+03	 1.897E+02	 4.176E+02	 6.494E+03	 1.598E+02	 8.268E+01	 2.930E+02	 1.591E+02	 8.914E+03	 5.465E+03	 4.516E+03	 1.701E+02	 7.399E+03	 8.146E+03	 4.981E+03	 4.166E+03	 5.266E+03	 4.304E+01	 7.319E+02
  16.800	 0.000E+00	-8.994E-01	 4.476E+00	 2.608E+02	 3.648E+03	 2.579E+03	 8.942E+03	 1.630E+02	 3.818E+02	 6.489E+03	 1.427E+02	 6.076E+01	 2.620E+02	 1.494E+02	 8.905E+03	 5.462E+03	 4.514E+03	 1.571E+02	 7.393E+03	 8.139E+03	 4.981E+03	 4.171E+03	 5.272E+03	 4.305E+01	 7.318E+02
  16.812	 0.000E+00	-8.945E-01	 4.476E+00	 2.608E+02	 3.647E+03	 2.541E+03	 8.942E+03	 1.374E+02	 3.473E+02	 6.484E+03	 1.264E+02	 3.989E+01	 2.323E+02	 1.404E+02	 8.897E+03	 5.459E+03	 4.512E+03	 1.448E+02	 7.387E+03	 8.132E+03	 4.981E+03	 4.175E+03	 5.278E+03	 4.305E+01	 7.317E+02
  16.825	 0.000E+00	-8.899E-01	 4.476E+00	 2.609E+02	 3.646E+03	 2.504E+03	 8.941E+03	 1.130E+02	 3.140E+02	 6.479E+03	 1.111E+02	 2.005E+01	 2.037E+02	 1.320E+02	 8.888E+03	 5.456E+03	 4.510E+03	 1.333E+02	 7.381E+03	 8.125E+03	 4.982E+03	 4.179E+03	 5.283E+03	 4.305E+01	 7.316E+02
  16.838	 0.000E+00	-8.855E-01	 4.476E+00	 2.609E+02	 3.645E+03	 2.468E+03	 8.941E+03	 8.971E+01	 2.820E+02	 6.475E+03	 9.665E+01	 1.169E+00	 1.763E+02	 1.243E+02	 8.880E+03	 5.453E+03	 4.508E+03	 1.225E+02	 7.375E+03	 8.118E+03	 4.982E+03	 4.183E+03	 5.287E+03	 4.306E+01	 7.316E+02
  16.850	 0.000E+00	-8.814E-01	 4.476E+00	 2.610E+02	 3.644E+03	 2.434E+03	 8.941E+03	 6.734E+01	 2.510E+02	 6.471E+03	 8.299E+01	-1.682E+01	 1.500E+02	 1.171E+02	 8.873E+03	 5.451E+03	 4.507E+03	 1.125E+02	 7.370E+03	 8.112E+03	 4.982E+03	 4.186E+03	 5.292E+03	 4.306E+01	 7.315E+02
  16.863	 0.000E+00	-8.775E-01	 4.476E+00	 2.610E+02	 3.643E+03	 2.400E+03	 8.940E+03	 4.589E+01	 2.211E+02	 6.467E+03	 7.005E+01	-3.397E+01	 1.246E+02	 1.105E+02	 8.865E+03	 5.448E+03	 4.505E+03	 1.030E+02	 7.365E+03	 8.106E+03	 4.983E+03	 4.189E+03	 5.295E+03	 4.306E+01	 7.314E+02
  16.875	 0.000E+00	-8.737E-01	 4.476E+00	 2.611E+02	 3.642E+03	 2.368E+03	 8.940E+03	 2.522E+01	 1.920E+02	 6.463E+03	 5.779E+01	-5.039E+01	 1.000E+02	 1.044E+02	 8.858E+03	 5.446E+03	 4.504E+03	 9.421E+01	 7.360E+03	 8.100E+03	 4.983E+03	 4.192E+03	 5.298E+03	 4.306E+01	 7.314E+02
  16.887	 0.000E+00	-8.702E-01	 4.477E+00	 2.611E+02	 3.642E+03	 2.336E+03	 8.940E+03	 5.292E+00	 1.638E+02	 6.459E+03	 4.611E+01	-6.614E+01	 7.625E+01	 9.868E+01	 8.851E+03	 5.444E+03	 4.502E+03	 8.587E+01	 7.355E+03	 8.094E+03	 4.984E+03	 4.194E+03	 5.301E+03	 4.307E+01	 7.313E+02
  16.900	 0.000E+00	-8.668E-01	 4.477E+00	 2.612E+02	 3.641E+03	 2.305E+03	 8.939E+03	-1.407E+01	 1.361E+02	 6.456E+03	 3.494E+01	-8.135E+01	 5.306E+01	 9.339E+01	 8.845E+03	 5.442E+03	 4.501E+03	 7.798E+01	 7.351E+03	 8.088E+03	 4.984E+03	 4.195E+03	 5.302E+03	 4.307E+01	 7.312E+02
  16.913	 0.000E+00	-8.636E-01	 4.477E+00	 2.612E+02	 3.640E+03	 2.275E+03	 8.939E+03	-3.291E+01	 1.091E+02	 6.453E+03	 2.417E+01	-9.609E+01	 3.045E+01	 8.837E+01	 8.838E+03	 5.440E+03	 4.500E+03	 7.044E+01	 7.346E+03	 8.083E+03	 4.985E+03	 4.196E+03	 5.303E+03	 4.307E+01	 7.312E+02
  16.925	 0.000E+00	-8.604E-01	 4.477E+00	 2.613E+02	 3.640E+03	 2.245E+03	 8.939E+03	-5.141E+01	 8.241E+01	 6.449E+03	 1.372E+01	-1.105E+02	 8.163E+00	 8.362E+01	 8.832E+03	 5.438E+03	 4.499E+03	 6.321E+01	 7.342E+03	 8.078E+03	 4.985E+03	 4.196E+03	 5.304E+03	 4.308E+01	 7.311E+02
  16.938	 0.000E+00	-8.573E-01	 4.477E+00	 2.614E+02	 3.639E+03	 2.215E+03	 8.939E+03	-6.961E+01	 5.607E+01	 6.446E+03	 3.495E+00	-1.247E+02	-1.379E+01	 7.901E+01	 8.826E+03	 5.436E+03	 4.498E+03	 5.615E+01	 7.338E+03	 8.073E+03	 4.986E+03	 4.196E+03	 5.303E+03	 4.308E+01	 7.311E+02
  16.950	 0.000E+00	-8.543E-01	 4.477E+00	 2.614E+02	 3.639E+03	 2.185E+03	 8.939E+03	-8.773E+01	 2.977E+01	 6.444E+03	-6.610E+00	-1.387E+02	-3.569E+01	 7.453E+01	 8.820E+03	 5.434E+03	 4.497E+03	 4.921E+01	 7.334E+03	 8.068E+03	 4.986E+03	 4.195E+03	 5.302E+03	 4.308E+01	 7.310E+02
  16.963	 0.000E+00	-8.513E-01	 4.477E+00	 2.615E+02	 3.639E+03	 2.156E+03	 8.939E+03	-1.058E+02	 3.552E+00	 6.441E+03	-1.669E+01	-1.527E+02	-5.751E+01	 7.004E+01	 8.814E+03	 5.433E+03	 4.496E+03	 4.229E+01	 7.330E+03	 8.063E+03	 4.987E+03	 4.194E+03	 5.300E+03	 4.308E+01	 7.310E+02
  16.975	 0.000E+00	-8.483E-01	 4.477E+00	 2.616E+02	 3.638E+03	 2.126E+03	 8.940E+03	-1.240E+02	-2.291E+01	 6.438E+03	-2.686E+01	-1.668E+02	-7.953E+01	 6.553E+01	 8.808E+03	 5.431E+03	 4.496E+03	 3.532E+01	 7.326E+03	 8.059E+03	 4.987E+03	 4.192E+03	 5.298E+03	 4.308E+01	 7.310E+02
  16.988	 0.000E+00	-8.453E-01	 4.477E+00	 2.616E+02	 3.638E+03	 2.096E+03	 8.940E+03	-1.424E+02	-4.956E+01	 6.435E+03	-3.719E+01	-1.811E+02	-1.017E+02	 6.087E+01	 8.802E+03	 5.430E+03	 4.495E+03	 2.818E+01	 7.323E+03	 8.054E+03	 4.987E+03	 4.190E+03	 5.295E+03	 4.309E+01	 7.310E+02
  17.000	 0.000E+00	-8.422E-01	 4.477E+00	 2.617E+02	 3.638E+03	 2.066E+03	 8.941E+03	-1.612E+02	-7.674E+01	 6.432E+03	-4.780E+01	-1.958E+02	-1.244E+02	 5.605E+01	 8.796E+03	 5.428E+03	 4.494E+03	 2.083E+01	 7.319E+03	 8.049E+03	 4.988E+03	 4.187E+03	 5.292E+03	 4.309E+01	 7.309E+02
  17.012	 0.000E+00	-8.390E-01	 4.478E+00	 2.618E+02	 3.637E+03	 2.035E+03	 8.941E+03	-1.805E+02	-1.044E+02	 6.429E+03	-5.877E+01	-2.108E+02	-1.475E+02	 5.095E+01	 8.790E+03	 5.427E+03	 4.493E+03	 1.316E+01	 7.315E+03	 8.044E+03	 4.988E+03	 4.184E+03	 5.288E+03	 4.309E+01	 7.309E+02
  17.025	 0.000E+00	-8.357E-01	 4.478E+00	 2.618E+02	 3.637E+03	 2.003E+03	 8.942E+03	-2.003E+02	-1.328E+02	 6.427E+03	-7.019E+01	-2.264E+02	-1.713E+02	 4.556E+01	 8.784E+03	 5.425E+03	 4.492E+03	 5.122E+00	 7.311E+03	 8.039E+03	 4.988E+03	 4.181E+03	 5.284E+03	 4.309E+01	 7.309E+02
  17.038	 0.000E+00	-8.322E-01	 4.478E+00	 2.619E+02	 3.637E+03	 1.971E+03	 8.942E+03	-2.208E+02	-1.619E+02	 6.423E+03	-8.214E+01	-2.426E+02	-1.958E+02	 3.977E+01	 8.778E+03	 5.423E+03	 4.492E+03	-3.382E+00	 7.307E+03	 8.034E+03	 4.988E+03	 4.178E+03	 5.280E+03	 4.309E+01	 7.309E+02
  17.050	 0.000E+00	-8.286E-01	 4.479E+00	 2.620E+02	 3.636E+03	 1.937E+03	 8.943E+03	-2.422E+02	-1.921E+02	 6.420E+03	-9.469E+01	-2.595E+02	-2.213E+02	 3.358E+01	 8.772E+03	 5.422E+03	 4.491E+03	-1.238E+01	 7.303E+03	 8.029E+03	 4.989E+03	 4.174E+03	 5.276E+03	 4.310E+01	 7.308E+02
  17.062	 0.000E+00	-8.248E-01	 4.479E+00	 2.621E+02	 3.636E+03	 1.903E+03	 8.944E+03	-2.643E+02	-2.232E+02	 6.417E+03	-1.079E+02	-2.771E+02	-2.476E+02	 2.689E+01	 8.765E+03	 5.420E+03	 4.490E+03	-2.197E+01	 7.299E+03	 8.024E+03	 4.989E+03	 4.171E+03	 5.271E+03	 4.310E+01	 7.308E+02
  17.075	 0.000E+00	-8.208E-01	 4.479E+00	 2.621E+02	 3.635E+03	 1.867E+03	 8.944E+03	-2.875E+02	-2.555E+02	 6.414E+03	-1.219E+02	-2.957E+02	-2.750E+02	 1.972E+01	 8.758E+03	 5.418E+03	 4.489E+03	-3.216E+01	 7.294E+03	 8.018E+03	 4.989E+03	 4.167E+03	 5.267E+03	 4.310E+01	 7.308E+02
  17.088	 0.000E+00	-8.166E-01	 4.480E+00	 2.622E+02	 3.635E+03	 1.830E+03	 8.945E+03	-3.116E+02	-2.890E+02	 6.410E+03	-1.366E+02	-3.151E+02	-3.035E+02	 1.197E+01	 8.751E+03	 5.416E+03	 4.487E+03	-4.304E+01	 7.289E+03	 8.012E+03	 4.989E+03	 4.164E+03	 5.262E+03	 4.310E+01	 7.308E+02
  17.100	 0.000E+00	-8.121E-01	 4.480E+00	 2.623E+02	 3.634E+03	 1.791E+03	 8.946E+03	-3.369E+02	-3.239E+02	 6.406E+03	-1.522E+02	-3.355E+02	-3.332E+02	 3.662E+00	 8.744E+03	 5.413E+03	 4.486E+03	-5.460E+01	 7.284E+03	 8.006E+03	 4.989E+03	 4.161E+03	 5.258E+03	 4.310E+01	 7.307E+02
  17.113	 0.000E+00	-8.074E-01	 4.480E+00	 2.624E+02	 3.633E+03	 1.751E+03	 8.947E+03	-3.634E+02	-3.601E+02	 6.402E+03	-1.687E+02	-3.570E+02	-3.642E+02	-5.275E+00	 8.736E+03	 5.411E+03	 4.485E+03	-6.693E+01	 7.279E+03	 8.000E+03	 4.989E+03	 4.158E+03	 5.254E+03	 4.311E+01	 7.307E+02
  17.125	 0.000E+00	-8.025E-01	 4.481E+00	 2.624E+02	 3.633E+03	 1.709E+03	 8.947E+03	-3.911E+02	-3.978E+02	 6.398E+03	-1.861E+02	-3.795E+02	-3.966E+02	-1.482E+01	 8.728E+03	 5.409E+03	 4.483E+03	-8.002E+01	 7.273E+03	 7.993E+03	 4.989E+03	 4.155E+03	 5.251E+03	 4.311E+01	 7.306E+02
  17.137	 0.000E+00	-7.972E-01	 4.481E+00	 2.625E+02	 3.632E+03	 1.666E+03	 8.948E+03	-4.200E+02	-4.370E+02	 6.393E+03	-2.045E+02	-4.032E+02	-4.303E+02	-2.503E+01	 8.719E+03	 5.406E+03	 4.482E+03	-9.392E+01	 7.267E+03	 7.986E+03	 4.989E+03	 4.153E+03	 5.248E+03	 4.311E+01	 7.306E+02
  17.150	 0.000E+00	-7.917E-01	 4.482E+00	 2.626E+02	 3.631E+03	 1.621E+03	 8.949E+03	-4.503E+02	-4.779E+02	 6.388E+03	-2.239E+02	-4.280E+02	-4.655E+02	-3.589E+01	 8.710E+03	 5.403E+03	 4.480E+03	-1.086E+02	 7.261E+03	 7.979E+03	 4.989E+03	 4.151E+03	 5.245E+03	 4.311E+01	 7.305E+02
  17.163	 0.000E+00	-7.859E-01	 4.482E+00	 2.627E+02	 3.630E+03	 1.574E+03	 8.949E+03	-4.819E+02	-5.203E+02	 6.383E+03	-2.443E+02	-4.540E+02	-5.022E+02	-4.745E+01	 8.701E+03	 5.400E+03	 4.478E+03	-1.242E+02	 7.255E+03	 7.971E+03	 4.989E+03	 4.150E+03	 5.243E+03	 4.311E+01	 7.304E+02
  17.175	 0.000E+00	-7.798E-01	 4.483E+00	 2.627E+02	 3.629E+03	 1.526E+03	 8.950E+03	-5.150E+02	-5.644E+02	 6.378E+03	-2.657E+02	-4.812E+02	-5.404E+02	-5.968E+01	 8.691E+03	 5.396E+03	 4.476E+03	-1.406E+02	 7.248E+03	 7.963E+03	 4.989E+03	 4.149E+03	 5.242E+03	 4.312E+01	 7.303E+02
  17.188	 0.000E+00	-7.734E-01	 4.483E+00	 2.628E+02	 3.628E+03	 1.475E+03	 8.950E+03	-5.494E+02	-6.102E+02	 6.372E+03	-2.881E+02	-5.097E+02	-5.801E+02	-7.263E+01	 8.681E+03	 5.393E+03	 4.474E+03	-1.579E+02	 7.241E+03	 7.954E+03	 4.989E+03	 4.148E+03	 5.241E+03	 4.312E+01	 7.302E+02
  17.200	 0.000E+00	-7.667E-01	 4.484E+00	 2.629E+02	 3.626E+03	 1.423E+03	 8.951E+03	-5.852E+02	-6.577E+02	 6.366E+03	-3.116E+02	-5.394E+02	-6.215E+02	-8.627E+01	 8.670E+03	 5.389E+03	 4.472E+03	-1.760E+02	 7.233E+03	 7.945E+03	 4.988E+03	 4.148E+03	 5.241E+03	 4.312E+01	 7.301E+02
  17.213	 0.000E+00	-7.597E-01	 4.484E+00	 2.629E+02	 3.625E+03	 1.369E+03	 8.951E+03	-6.225E+02	-7.069E+02	 6.359E+03	-3.362E+02	-5.704E+02	-6.643E+02	-1.007E+02	 8.659E+03	 5.385E+03	 4.469E+03	-1.951E+02	 7.225E+03	 7.935E+03	 4.988E+03	 4.149E+03	 5.241E+03	 4.312E+01	 7.300E+02
  17.225	 0.000E+00	-7.523E-01	 4.485E+00	 2.630E+02	 3.623E+03	 1.313E+03	 8.951E+03	-6.612E+02	-7.578E+02	 6.353E+03	-3.619E+02	-6.026E+02	-7.088E+02	-1.157E+02	 8.648E+03	 5.381E+03	 4.467E+03	-2.150E+02	 7.216E+03	 7.925E+03	 4.988E+03	 4.149E+03	 5.242E+03	 4.312E+01	 7.298E+02
  17.238	 0.000E+00	-7.447E-01	 4.485E+00	 2.630E+02	 3.622E+03	 1.255E+03	 8.951E+03	-7.013E+02	-8.104E+02	 6.346E+03	-3.886E+02	-6.361E+02	-7.548E+02	-1.315E+02	 8.635E+03	 5.376E+03	 4.464E+03	-2.359E+02	 7.208E+03	 7.915E+03	 4.988E+03	 4.151E+03	 5.244E+03	 4.313E+01	 7.297E+02
  17.250	 0.000E+00	-7.367E-01	 4.485E+00	 2.631E+02	 3.620E+03	 1.196E+03	 8.952E+03	-7.428E+02	-8.648E+02	 6.338E+03	-4.164E+02	-6.709E+02	-8.024E+02	-1.481E+02	 8.623E+03	 5.371E+03	 4.461E+03	-2.576E+02	 7.199E+03	 7.904E+03	 4.988E+03	 4.153E+03	 5.246E+03	 4.313E+01	 7.296E+02
  17.262	 0.000E+00	-7.285E-01	 4.486E+00	 2.632E+02	 3.618E+03	 1.134E+03	 8.952E+03	-7.857E+02	-9.207E+02	 6.330E+03	-4.453E+02	-7.068E+02	-8.515E+02	-1.653E+02	 8.610E+03	 5.366E+03	 4.458E+03	-2.802E+02	 7.189E+03	 7.893E+03	 4.988E+03	 4.155E+03	 5.249E+03	 4.313E+01	 7.294E+02
  17.275	 0.000E+00	-7.199E-01	 4.486E+00	 2.632E+02	 3.616E+03	 1.071E+03	 8.951E+03	-8.300E+02	-9.783E+02	 6.322E+03	-4.751E+02	-7.440E+02	-9.020E+02	-1.833E+02	 8.596E+03	 5.361E+03	 4.454E+03	-3.037E+02	 7.179E+03	 7.882E+03	 4.988E+03	 4.158E+03	 5.253E+03	 4.313E+01	 7.292E+02
  17.288	 0.000E+00	-7.111E-01	 4.486E+00	 2.633E+02	 3.614E+03	 1.006E+03	 8.951E+03	-8.757E+02	-1.037E+03	 6.314E+03	-5.061E+02	-7.824E+02	-9.541E+02	-2.020E+02	 8.582E+03	 5.356E+03	 4.451E+03	-3.280E+02	 7.169E+03	 7.869E+03	 4.988E+03	 4.161E+03	 5.256E+03	 4.313E+01	 7.291E+02
  17.300	 0.000E+00	-7.019E-01	 4.487E+00	 2.633E+02	 3.612E+03	 9.400E+02	 8.951E+03	-9.226E+02	-1.098E+03	 6.305E+03	-5.380E+02	-8.219E+02	-1.007E+03	-2.214E+02	 8.568E+03	 5.350E+03	 4.447E+03	-3.532E+02	 7.158E+03	 7.857E+03	 4.988E+03	 4.165E+03	 5.261E+03	 4.314E+01	 7.289E+02
  17.312	 0.000E+00	-6.924E-01	 4.487E+00	 2.633E+02	 3.609E+03	 8.720E+02	 8.951E+03	-9.707E+02	-1.160E+03	 6.296E+03	-5.709E+02	-8.625E+02	-1.062E+03	-2.415E+02	 8.553E+03	 5.344E+03	 4.443E+03	-3.792E+02	 7.147E+03	 7.844E+03	 4.988E+03	 4.168E+03	 5.265E+03	 4.314E+01	 7.287E+02
  17.325	 0.000E+00	-6.827E-01	 4.487E+00	 2.634E+02	 3.607E+03	 8.026E+02	 8.950E+03	-1.020E+03	-1.224E+03	 6.287E+03	-6.047E+02	-9.042E+02	-1.118E+03	-2.622E+02	 8.538E+03	 5.338E+03	 4.439E+03	-4.060E+02	 7.135E+03	 7.831E+03	 4.988E+03	 4.172E+03	 5.270E+03	 4.314E+01	 7.285E+02
  17.338	 0.000E+00	-6.727E-01	 4.487E+00	 2.634E+02	 3.604E+03	 7.318E+02	 8.950E+03	-1.070E+03	-1.288E+03	 6.277E+03	-6.394E+02	-9.469E+02	-1.175E+03	-2.835E+02	 8.522E+03	 5.331E+03	 4.435E+03	-4.336E+02	 7.124E+03	 7.817E+03	 4.988E+03	 4.176E+03	 5.275E+03	 4.314E+01	 7.283E+02
  17.350	 0.000E+00	-6.625E-01	 4.487E+00	 2.635E+02	 3.602E+03	 6.598E+02	 8.949E+03	-1.122E+03	-1.354E+03	 6.267E+03	-6.748E+02	-9.904E+02	-1.234E+03	-3.054E+02	 8.506E+03	 5.325E+03	 4.431E+03	-4.618E+02	 7.112E+03	 7.803E+03	 4.988E+03	 4.180E+03	 5.280E+03	 4.314E+01	 7.281E+02
  17.363	 0.000E+00	-6.521E-01	 4.487E+00	 2.635E+02	 3.599E+03	 5.866E+02	 8.948E+03	-1.174E+03	-1.421E+03	 6.257E+03	-7.111E+02	-1.035E+03	-1.293E+03	-3.279E+02	 8.489E+03	 5.318E+03	 4.426E+03	-4.907E+02	 7.099E+03	 7.789E+03	 4.989E+03	 4.185E+03	 5.285E+03	 4.315E+01	 7.279E+02
  17.375	 0.000E+00	-6.414E-01	 4.487E+00	 2.635E+02	 3.596E+03	 5.124E+02	 8.947E+03	-1.227E+03	-1.489E+03	 6.246E+03	-7.480E+02	-1.080E+03	-1.353E+03	-3.509E+02	 8.472E+03	 5.311E+03	 4.422E+03	-5.202E+02	 7.087E+03	 7.774E+03	 4.989E+03	 4.189E+03	 5.291E+03	 4.315E+01	 7.277E+02
  17.387	 0.000E+00	-6.306E-01	 4.487E+00	 2.635E+02	 3.593E+03	 4.374E+02	 8.946E+03	-1.281E+03	-1.557E+03	 6.236E+03	-7.855E+02	-1.126E+03	-1.414E+03	-3.743E+02	 8.455E+03	 5.304E+03	 4.417E+03	-5.502E+02	 7.074E+03	 7.759E+03	 4.989E+03	 4.192E+03	 5.295E+03	 4.315E+01	 7.275E+02
  17.400	 0.000E+00	-6.196E-01	 4.487E+00	 2.635E+02	 3.590E+03	 3.616E+02	 8.945E+03	-1.335E+03	-1.627E+03	 6.225E+03	-8.234E+02	-1.172E+03	-1.475E+03	-3.981E+02	 8.438E+03	 5.296E+03	 4.412E+03	-5.806E+02	 7.060E+03	 7.744E+03	 4.989E+03	 4.196E+03	 5.300E+03	 4.315E+01	 7.273E+02
  17.413	 0.000E+00	-6.084E-01	 4.487E+00	 2.635E+02	 3.587E+03	 2.853E+02	 8.943E+03	-1.390E+03	-1.696E+03	 6.214E+03	-8.619E+02	-1.219E+03	-1.537E+03	-4.223E+02	 8.420E+03	 5.289E+03	 4.407E+03	-6.114E+02	 7.047E+03	 7.729E+03	 4.990E+03	 4.200E+03	 5.305E+03	 4.315E+01	 7.271E+02
  17.425	 0.000E+00	-5.972E-01	 4.486E+00	 2.635E+02	 3.583E+03	 2.086E+02	 8.942E+03	-1.446E+03	-1.766E+03	 6.202E+03	-9.005E+02	-1.266E+03	-1.600E+03	-4.466E+02	 8.402E+03	 5.281E+03	 4.402E+03	-6.425E+02	 7.033E+03	 7.713E+03	 4.990E+03	 4.203E+03	 5.309E+03	 4.315E+01	 7.269E+02
  17.438	 0.000E+00	-5.859E-01	 4.486E+00	 2.635E+02	 3.580E+03	 1.318E+02	 8.940E+03	-1.501E+03	-1.837E+03	 6.191E+03	-9.394E+02	-1.313E+03	-1.662E+03	-4.711E+02	 8.384E+03	 5.273E+03	 4.396E+03	-6.738E+02	 7.020E+03	 7.697E+03	 4.990E+03	 4.206E+03	 5.312E+03	 4.316E+01	 7.267E+02
  17.450	 0.000E+00	-5.746E-01	 4.486E+00	 2.635E+02	 3.576E+03	 5.484E+01	 8.938E+03	-1.556E+03	-1.907E+03	 6.179E+03	-9.784E+02	-1.361E+03	-1.725E+03	-4.957E+02	 8.366E+03	 5.265E+03	 4.391E+03	-7.051E+02	 7.006E+03	 7.681E+03	 4.991E+03	 4.208E+03	 5.315E+03	 4.316E+01	 7.264E+02
  17.463	 0.000E+00	-5.633E-01	 4.485E+00	 2.635E+02	 3.573E+03	-2.189E+01	 8.936E+03	-1.612E+03	-1.977E+03	 6.167E+03	-1.017E+03	-1.408E+03	-1.787E+03	-5.204E+02	 8.347E+03	 5.257E+03	 4.386E+03	-7.365E+02	 6.992E+03	 7.665E+03	 4.991E+03	 4.210E+03	 5.318E+03	 4.316E+01	 7.262E+02
  17.475	 0.000E+00	-5.520E-01	 4.484E+00	 2.635E+02	 3.569E+03	-9.839E+01	 8.934E+03	-1.667E+03	-2.047E+03	 6.156E+03	-1.056E+03	-1.455E+03	-1.849E+03	-5.449E+02	 8.329E+03	 5.249E+03	 4.380E+03	-7.677E+02	 6.977E+03	 7.649E+03	 4.992E+03	 4.211E+03	 5.320E+03	 4.316E+01	 7.260E+02
  17.488	 0.000E+00	-5.407E-01	 4.484E+00	 2.634E+02	 3.565E+03	-1.743E+02	 8.932E+03	-1.722E+03	-2.116E+03	 6.144E+03	-1.095E+03	-1.502E+03	-1.911E+03	-5.693E+02	 8.310E+03	 5.241E+03	 4.374E+03	-7.987E+02	 6.963E+03	 7.633E+03	 4.992E+03	 4.212E+03	 5.321E+03	 4.316E+01	 7.258E+02
  17.500	 0.000E+00	-5.296E-01	 4.483E+00	 2.634E+02	 3.562E+03	-2.496E+02	 8.929E+03	-1.776E+03	-2.185E+03	 6.132E+03	-1.133E+03	-1.548E+03	-1.972E+03	-5.934E+02	 8.292E+03	 5.233E+03	 4.369E+03	-8.293E+02	 6.949E+03	 7.617E+03	 4.992E+03	 4.213E+03	 5.322E+03	 4.316E+01	 7.256E+02
  17.512	 0.000E+00	-5.186E-01	 4.482E+00	 2.634E+02	 3.558E+03	-3.240E+02	 8.927E+03	-1.829E+03	-2.252E+03	 6.120E+03	-1.170E+03	-1.594E+03	-2.032E+03	-6.172E+02	 8.274E+03	 5.224E+03	 4.363E+03	-8.596E+02	 6.935E+03	 7.600E+03	 4.993E+03	 4.213E+03	 5.322E+03	 4.316E+01	 7.254E+02
  17.525	 0.000E+00	-5.078E-01	 4.481E+00	 2.633E+02	 3.554E+03	-3.974E+02	 8.924E+03	-1.882E+03	-2.319E+03	 6.108E+03	-1.207E+03	-1.639E+03	-2.092E+03	-6.405E+02	 8.255E+03	 5.216E+03	 4.358E+03	-8.894E+02	 6.921E+03	 7.584E+03	 4.993E+03	 4.213E+03	 5.321E+03	 4.317E+01	 7.252E+02
  17.538	 0.000E+00	-4.971E-01	 4.480E+00	 2.633E+02	 3.551E+03	-4.695E+02	 8.921E+03	-1.934E+03	-2.385E+03	 6.097E+03	-1.244E+03	-1.683E+03	-2.150E+03	-6.634E+02	 8.237E+03	 5.208E+03	 4.352E+03	-9.186E+02	 6.907E+03	 7.568E+03	 4.994E+03	 4.212E+03	 5.320E+03	 4.317E+01	 7.250E+02
  17.550	 0.000E+00	-4.867E-01	 4.479E+00	 2.632E+02	 3.547E+03	-5.404E+02	 8.918E+03	-1.984E+03	-2.449E+03	 6.085E+03	-1.279E+03	-1.726E+03	-2.207E+03	-6.857E+02	 8.219E+03	 5.200E+03	 4.346E+03	-9.470E+02	 6.893E+03	 7.552E+03	 4.994E+03	 4.210E+03	 5.319E+03	 4.317E+01	 7.248E+02
  17.562	 0.000E+00	-4.765E-01	 4.478E+00	 2.632E+02	 3.543E+03	-6.096E+02	 8.915E+03	-2.034E+03	-2.512E+03	 6.074E+03	-1.314E+03	-1.768E+03	-2.263E+03	-7.074E+02	 8.201E+03	 5.192E+03	 4.341E+03	-9.748E+02	 6.880E+03	 7.537E+03	 4.994E+03	 4.208E+03	 5.316E+03	 4.317E+01	 7.246E+02
  17.575	 0.000E+00	-4.666E-01	 4.476E+00	 2.631E+02	 3.540E+03	-6.773E+02	 8.911E+03	-2.082E+03	-2.573E+03	 6.063E+03	-1.347E+03	-1.809E+03	-2.317E+03	-7.284E+02	 8.183E+03	 5.184E+03	 4.335E+03	-1.002E+03	 6.866E+03	 7.521E+03	 4.995E+03	 4.206E+03	 5.313E+03	 4.317E+01	 7.245E+02
  17.588	 0.000E+00	-4.570E-01	 4.475E+00	 2.630E+02	 3.536E+03	-7.430E+02	 8.908E+03	-2.129E+03	-2.633E+03	 6.052E+03	-1.380E+03	-1.849E+03	-2.370E+03	-7.487E+02	 8.166E+03	 5.177E+03	 4.330E+03	-1.028E+03	 6.853E+03	 7.506E+03	 4.995E+03	 4.203E+03	 5.310E+03	 4.317E+01	 7.243E+02
  17.600	 0.000E+00	-4.477E-01	 4.474E+00	 2.629E+02	 3.532E+03	-8.070E+02	 8.904E+03	-2.174E+03	-2.691E+03	 6.041E+03	-1.411E+03	-1.887E+03	-2.421E+03	-7.682E+02	 8.149E+03	 5.169E+03	 4.325E+03	-1.053E+03	 6.840E+03	 7.491E+03	 4.995E+03	 4.200E+03	 5.306E+03	 4.317E+01	 7.242E+02
  17.613	 0.000E+00	-4.388E-01	 4.472E+00	 2.628E+02	 3.529E+03	-8.687E+02	 8.900E+03	-2.217E+03	-2.746E+03	 6.030E+03	-1.441E+03	-1.924E+03	-2.470E+03	-7.868E+02	 8.132E+03	 5.161E+03	 4.320E+03	-1.077E+03	 6.827E+03	 7.476E+03	 4.995E+03	 4.197E+03	 5.302E+03	 4.317E+01	 7.240E+02
  17.625	 0.000E+00	-4.302E-01	 4.471E+00	 2.628E+02	 3.525E+03	-9.285E+02	 8.896E+03	-2.259E+03	-2.800E+03	 6.020E+03	-1.470E+03	-1.960E+03	-2.518E+03	-8.046E+02	 8.116E+03	 5.154E+03	 4.314E+03	-1.099E+03	 6.814E+03	 7.462E+03	 4.996E+03	 4.193E+03	 5.298E+03	 4.317E+01	 7.239E+02
  17.637	 0.000E+00	-4.220E-01	 4.469E+00	 2.626E+02	 3.522E+03	-9.858E+02	 8.892E+03	-2.299E+03	-2.852E+03	 6.010E+03	-1.497E+03	-1.993E+03	-2.563E+03	-8.215E+02	 8.100E+03	 5.147E+03	 4.309E+03	-1.121E+03	 6.802E+03	 7.448E+03	 4.996E+03	 4.190E+03	 5.293E+03	 4.317E+01	 7.237E+02
  17.650	 0.000E+00	-4.142E-01	 4.468E+00	 2.625E+02	 3.519E+03	-1.041E+03	 8.888E+03	-2.337E+03	-2.901E+03	 6.000E+03	-1.523E+03	-2.026E+03	-2.607E+03	-8.374E+02	 8.084E+03	 5.140E+03	 4.305E+03	-1.142E+03	 6.790E+03	 7.434E+03	 4.996E+03	 4.186E+03	 5.288E+03	 4.317E+01	 7.236E+02
  17.663	 0.000E+00	-4.067E-01	 4.466E+00	 2.624E+02	 3.515E+03	-1.094E+03	 8.884E+03	-2.374E+03	-2.948E+03	 5.990E+03	-1.548E+03	-2.056E+03	-2.648E+03	-8.524E+02	 8.069E+03	 5.133E+03	 4.300E+03	-1.161E+03	 6.779E+03	 7.421E+03	 4.996E+03	 4.182E+03	 5.283E+03	 4.318E+01	 7.235E+02
  17.675	 0.000E+00	-3.997E-01	 4.464E+00	 2.623E+02	 3.512E+03	-1.144E+03	 8.879E+03	-2.408E+03	-2.993E+03	 5.981E+03	-1.571E+03	-2.085E+03	-2.688E+03	-8.664E+02	 8.054E+03	 5.127E+03	 4.295E+03	-1.180E+03	 6.768E+03	 7.408E+03	 4.996E+03	 4.178E+03	 5.278E+03	 4.318E+01	 7.234E+02
  17.688	 0.000E+00	-3.930E-01	 4.462E+00	 2.622E+02	 3.509E+03	-1.192E+03	 8.875E+03	-2.440E+03	-3.036E+03	 5.972E+03	-1.593E+03	-2.112E+03	-2.725E+03	-8.794E+02	 8.039E+03	 5.121E+03	 4.291E+03	-1.197E+03	 6.757E+03	 7.396E+03	 4.996E+03	 4.175E+03	 5.273E+03	 4.318E+01	 7.233E+02
  17.700	 0.000E+00	-3.868E-01	 4.461E+00	 2.620E+02	 3.506E+03	-1.237E+03	 8.870E+03	-2.471E+03	-3.076E+03	 5.963E+03	-1.613E+03	-2.137E+03	-2.760E+03	-8.914E+02	 8.025E+03	 5.114E+03	 4.287E+03	-1.213E+03	 6.746E+03	 7.384E+03	 4.996E+03	 4.171E+03	 5.269E+03	 4.318E+01	 7.233E+02
  17.713	 0.000E+00	-3.810E-01	 4.459E+00	 2.619E+02	 3.503E+03	-1.280E+03	 8.865E+03	-2.500E+03	-3.114E+03	 5.955E+03	-1.632E+03	-2.161E+03	-2.793E+03	-9.025E+02	 8.012E+03	 5.109E+03	 4.282E+03	-1.227E+03	 6.736E+03	 7.372E+03	 4.996E+03	 4.167E+03	 5.264E+03	 4.318E+01	 7.232E+02
  17.725	 0.000E+00	-3.756E-01	 4.457E+00	 2.618E+02	 3.501E+03	-1.321E+03	 8.860E+03	-2.526E+03	-3.150E+03	 5.947E+03	-1.649E+03	-2.183E+03	-2.824E+03	-9.125E+02	 7.999E+03	 5.103E+03	 4.278E+03	-1.241E+03	 6.727E+03	 7.361E+03	 4.995E+03	 4.164E+03	 5.260E+03	 4.318E+01	 7.231E+02
  17.738	 0.000E+00	-3.706E-01	 4.455E+00	 2.616E+02	 3.498E+03	-1.359E+03	 8.855E+03	-2.551E+03	-3.183E+03	 5.939E+03	-1.665E+03	-2.203E+03	-2.853E+03	-9.216E+02	 7.986E+03	 5.098E+03	 4.275E+03	-1.253E+03	 6.717E+03	 7.350E+03	 4.995E+03	 4.161E+03	 5.256E+03	 4.318E+01	 7.231E+02
  17.750	 0.000E+00	-3.660E-01	 4.453E+00	 2.615E+02	 3.495E+03	-1.394E+03	 8.851E+03	-2.574E+03	-3.214E+03	 5.932E+03	-1.680E+03	-2.222E+03	-2.879E+03	-9.297E+02	 7.974E+03	 5.092E+03	 4.271E+03	-1.264E+03	 6.708E+03	 7.339E+03	 4.995E+03	 4.159E+03	 5.253E+03	 4.318E+01	 7.230E+02
  17.762	 0.000E+00	-3.617E-01	 4.451E+00	 2.613E+02	 3.493E+03	-1.427E+03	 8.845E+03	-2.595E+03	-3.243E+03	 5.925E+03	-1.693E+03	-2.239E+03	-2.904E+03	-9.369E+02	 7.963E+03	 5.087E+03	 4.267E+03	-1.274E+03	 6.700E+03	 7.329E+03	 4.995E+03	 4.157E+03	 5.250E+03	 4.318E+01	 7.230E+02
  17.775	 0.000E+00	-3.579E-01	 4.449E+00	 2.612E+02	 3.491E+03	-1.458E+03	 8.840E+03	-2.614E+03	-3.269E+03	 5.919E+03	-1.705E+03	-2.254E+03	-2.927E+03	-9.431E+02	 7.951E+03	 5.083E+03	 4.264E+03	-1.282E+03	 6.692E+03	 7.320E+03	 4.995E+03	 4.155E+03	 5.248E+03	 4.318E+01	 7.230E+02
  17.788	 0.000E+00	-3.544E-01	 4.448E+00	 2.610E+02	 3.488E+03	-1.487E+03	 8.835E+03	-2.631E+03	-3.294E+03	 5.912E+03	-1.715E+03	-2.268E+03	-2.947E+03	-9.485E+02	 7.941E+03	 5.078E+03	 4.261E+03	-1.290E+03	 6.684E+03	 7.311E+03	 4.994E+03	 4.154E+03	 5.246E+03	 4.318E+01	 7.229E+02
  17.800	 0.000E+00	-3.513E-01	 4.446E+00	 2.608E+02	 3.486E+03	-1.514E+03	 8.830E+03	-2.647E+03	-3.317E+03	 5.906E+03	-1.724E+03	-2.281E+03	-2.966E+03	-9.529E+02	 7.930E+03	 5.074E+03	 4.258E+03	-1.296E+03	 6.676E+03	 7.302E+03	 4.994E+03	 4.153E+03	 5.245E+03	 4.318E+01	 7.229E+02
  17.812	 0.000E+00	-3.485E-01	 4.444E+00	 2.607E+02	 3.484E+03	-1.539E+03	 8.825E+03	-2.662E+03	-3.337E+03	 5.900E+03	-1.732E+03	-2.292E+03	-2.984E+03	-9.566E+02	 7.920E+03	 5.070E+03	 4.255E+03	-1.302E+03	 6.669E+03	 7.293E+03	 4.994E+03	 4.153E+03	 5.244E+03	 4.319E+01	 7.229E+02
  17.825	 0.000E+00	-3.460E-01	 4.442E+00	 2.605E+02	 3.482E+03	-1.562E+03	 8.820E+03	-2.674E+03	-3.357E+03	 5.895E+03	-1.739E+03	-2.302E+03	-2.999E+03	-9.595E+02	 7.911E+03	 5.066E+03	 4.252E+03	-1.307E+03	 6.662E+03	 7.285E+03	 4.994E+03	 4.153E+03	 5.244E+03	 4.319E+01	 7.229E+02
  17.838	 0.000E+00	-3.438E-01	 4.440E+00	 2.603E+02	 3.481E+03	-1.583E+03	 8.814E+03	-2.686E+03	-3.374E+03	 5.890E+03	-1.745E+03	-2.310E+03	-3.014E+03	-9.617E+02	 7.902E+03	 5.062E+03	 4.250E+03	-1.310E+03	 6.656E+03	 7.277E+03	 4.993E+03	 4.153E+03	 5.245E+03	 4.319E+01	 7.229E+02
  17.850	 0.000E+00	-3.419E-01	 4.438E+00	 2.601E+02	 3.479E+03	-1.602E+03	 8.809E+03	-2.696E+03	-3.390E+03	 5.885E+03	-1.750E+03	-2.318E+03	-3.027E+03	-9.632E+02	 7.893E+03	 5.059E+03	 4.247E+03	-1.313E+03	 6.650E+03	 7.270E+03	 4.993E+03	 4.154E+03	 5.246E+03	 4.319E+01	 7.229E+02
  17.863	 0.000E+00	-3.402E-01	 4.436E+00	 2.600E+02	 3.477E+03	-1.620E+03	 8.804E+03	-2.705E+03	-3.405E+03	 5.880E+03	-1.754E+03	-2.324E+03	-3.038E+03	-9.642E+02	 7.884E+03	 5.055E+03	 4.245E+03	-1.316E+03	 6.644E+03	 7.263E+03	 4.993E+03	 4.156E+03	 5.248E+03	 4.319E+01	 7.230E+02
  17.875	 0.000E+00	-3.388E-01	 4.435E+00	 2.598E+02	 3.476E+03	-1.638E+03	 8.799E+03	-2.714E+03	-3.419E+03	 5.876E+03	-1.758E+03	-2.330E+03	-3.049E+03	-9.646E+02	 7.876E+03	 5.052E+03	 4.242E+03	-1.317E+03	 6.638E+03	 7.256E+03	 4.993E+03	 4.158E+03	 5.250E+03	 4.319E+01	 7.230E+02
  17.887	 0.000E+00	-3.375E-01	 4.433E+00	 2.596E+02	 3.474E+03	-1.653E+03	 8.794E+03	-2.721E+03	-3.431E+03	 5.872E+03	-1.761E+03	-2.335E+03	-3.059E+03	-9.647E+02	 7.868E+03	 5.049E+03	 4.240E+03	-1.319E+03	 6.632E+03	 7.250E+03	 4.993E+03	 4.160E+03	 5.253E+03	 4.319E+01	 7.231E+02
  17.900	 0.000E+00	-3.364E-01	 4.431E+00	 2.595E+02	 3.473E+03	-1.669E+03	 8.789E+03	-2.728E+03	-3.443E+03	 5.867E+03	-1.763E+03	-2.339E+03	-3.068E+03	-9.643E+02	 7.861E+03	 5.046E+03	 4.238E+03	-1.319E+03	 6.627E+03	 7.243E+03	 4.993E+03	 4.163E+03	 5.256E+03	 4.319E+01	 7.231E+02
  17.913	 0.000E+00	-3.353E-01	 4.429E+00	 2.593E+02	 3.471E+03	-1.683E+03	 8.784E+03	-2.734E+03	-3.454E+03	 5.864E+03	-1.765E+03	-2.343E+03	-3.076E+03	-9.638E+02	 7.853E+03	 5.044E+03	 4.236E+03	-1.320E+03	 6.622E+03	 7.237E+03	 4.992E+03	 4.166E+03	 5.259E+03	 4.319E+01	 7.232E+02
  17.925	 0.000E+00	-3.344E-01	 4.428E+00	 2.591E+02	 3.470E+03	-1.697E+03	 8.779E+03	-2.740E+03	-3.465E+03	 5.860E+03	-1.766E+03	-2.347E+03	-3.085E+03	-9.631E+02	 7.846E+03	 5.041E+03	 4.235E+03	-1.320E+03	 6.617E+03	 7.231E+03	 4.992E+03	 4.169E+03	 5.263E+03	 4.320E+01	 7.233E+02
  17.938	 0.000E+00	-3.335E-01	 4.426E+00	 2.589E+02	 3.469E+03	-1.710E+03	 8.774E+03	-2.746E+03	-3.476E+03	 5.856E+03	-1.768E+03	-2.350E+03	-3.092E+03	-9.623E+02	 7.839E+03	 5.038E+03	 4.233E+03	-1.320E+03	 6.612E+03	 7.225E+03	 4.992E+03	 4.172E+03	 5.267E+03	 4.320E+01	 7.234E+02
  17.950	 0.000E+00	-3.326E-01	 4.424E+00	 2.588E+02	 3.468E+03	-1.724E+03	 8.770E+03	-2.751E+03	-3.486E+03	 5.852E+03	-1.770E+03	-2.354E+03	-3.100E+03	-9.615E+02	 7.832E+03	 5.036E+03	 4.231E+03	-1.320E+03	 6.608E+03	 7.219E+03	 4.992E+03	 4.176E+03	 5.272E+03	 4.320E+01	 7.235E+02
  17.963	 0.000E+00	-3.317E-01	 4.423E+00	 2.586E+02	 3.466E+03	-1.737E+03	 8.765E+03	-2.757E+03	-3.497E+03	 5.849E+03	-1.771E+03	-2.357E+03	-3.108E+03	-9.609E+02	 7.825E+03	 5.033E+03	 4.229E+03	-1.321E+03	 6.603E+03	 7.214E+03	 4.992E+03	 4.179E+03	 5.276E+03	 4.320E+01	 7.236E+02
  17.975	 0.000E+00	-3.307E-01	 4.421E+00	 2.585E+02	 3.465E+03	-1.751E+03	 8.761E+03	-2.763E+03	-3.508E+03	 5.845E+03	-1.773E+03	-2.361E+03	-3.116E+03	-9.605E+02	 7.818E+03	 5.031E+03	 4.227E+03	-1.321E+03	 6.598E+03	 7.208E+03	 4.992E+03	 4.183E+03	 5.280E+03	 4.320E+01	 7.238E+02
  17.988	 0.000E+00	-3.296E-01	 4.420E+00	 2.583E+02	 3.464E+03	-1.765E+03	 8.756E+03	-2.770E+03	-3.519E+03	 5.842E+03	-1.776E+03	-2.366E+03	-3.125E+03	-9.604E+02	 7.812E+03	 5.028E+03	 4.226E+03	-1.322E+03	 6.594E+03	 7.202E+03	 4.992E+03	 4.186E+03	 5.284E+03	 4.320E+01	 7.239E+02
  18.000	 0.000E+00	-3.284E-01	 4.418E+00	 2.582E+02	 3.463E+03	-1.779E+03	 8.752E+03	-2.777E+03	-3.531E+03	 5.838E+03	-1.779E+03	-2.370E+03	-3.134E+03	-9.607E+02	 7.805E+03	 5.026E+03	 4.224E+03	-1.323E+03	 6.589E+03	 7.197E+03	 4.993E+03	 4.190E+03	 5.289E+03	 4.320E+01	 7.241E+02
  18.012	 0.000E+00	-3.270E-01	 4.417E+00	 2.580E+02	 3.462E+03	-1.795E+03	 8.748E+03	-2.785E+03	-3.543E+03	 5.834E+03	-1.782E+03	-2.376E+03	-3.144E+03	-9.614E+02	 7.798E+03	 5.023E+03	 4.222E+03	-1.325E+03	 6.584E+03	 7.191E+03	 4.993E+03	 4.193E+03	 5.292E+03	 4.320E+01	 7.243E+02
  18.025	 0.000E+00	-3.254E-01	 4.416E+00	 2.579E+02	 3.460E+03	-1.811E+03	 8.744E+03	-2.793E+03	-3.556E+03	 5.830E+03	-1.786E+03	-2.382E+03	-3.155E+03	-9.627E+02	 7.791E+03	 5.021E+03	 4.220E+03	-1.328E+03	 6.579E+03	 7.185E+03	 4.993E+03	 4.195E+03	 5.296E+03	 4.321E+01	 7.245E+02
  18.038	 0.000E+00	-3.236E-01	 4.414E+00	 2.577E+02	 3.459E+03	-1.828E+03	 8.740E+03	-2.803E+03	-3.571E+03	 5.826E+03	-1.791E+03	-2.389E+03	-3.167E+03	-9.646E+02	 7.784E+03	 5.018E+03	 4.219E+03	-1.331E+03	 6.574E+03	 7.179E+03	 4.993E+03	 4.198E+03	 5.299E+03	 4.321E+01	 7.247E+02
  18.050	 0.000E+00	-3.216E-01	 4.413E+00	 2.576E+02	 3.458E+03	-1.846E+03	 8.736E+03	-2.813E+03	-3.586E+03	 5.822E+03	-1.797E+03	-2.397E+03	-3.179E+03	-9.671E+02	 7.776E+03	 5.015E+03	 4.217E+03	-1.335E+03	 6.569E+03	 7.173E+03	 4.993E+03	 4.200E+03	 5.302E+03	 4.321E+01	 7.249E+02
  18.062	 0.000E+00	-3.194E-01	 4.412E+00	 2.574E+02	 3.456E+03	-1.866E+03	 8.733E+03	-2.825E+03	-3.603E+03	 5.818E+03	-1.804E+03	-2.406E+03	-3.193E+03	-9.704E+02	 7.769E+03	 5.012E+03	 4.215E+03	-1.340E+03	 6.564E+03	 7.167E+03	 4.994E+03	 4.202E+03	 5.304E+03	 4.321E+01	 7.252E+02
  18.075	 0.000E+00	-3.168E-01	 4.410E+00	 2.573E+02	 3.455E+03	-1.886E+03	 8.729E+03	-2.837E+03	-3.620E+03	 5.814E+03	-1.811E+03	-2.416E+03	-3.208E+03	-9.743E+02	 7.761E+03	 5.009E+03	 4.212E+03	-1.345E+03	 6.558E+03	 7.160E+03	 4.994E+03	 4.204E+03	 5.306E+03	 4.321E+01	 7.254E+02
  18.088	 0.000E+00	-3.140E-01	 4.409E+00	 2.572E+02	 3.453E+03	-1.908E+03	 8.726E+03	-2.851E+03	-3.639E+03	 5.809E+03	-1.820E+03	-2.428E+03	-3.224E+03	-9.790E+02	 7.754E+03	 5.006E+03	 4.210E+03	-1.352E+03	 6.553E+03	 7.153E+03	 4.994E+03	 4.205E+03	 5.307E+03	 4.321E+01	 7.257E+02
  18.100	 0.000E+00	-3.109E-01	 4.408E+00	 2.570E+02	 3.452E+03	-1.932E+03	 8.722E+03	-2.866E+03	-3.660E+03	 5.804E+03	-1.830E+03	-2.440E+03	-3.242E+03	-9.845E+02	 7.746E+03	 5.002E+03	 4.208E+03	-1.359E+03	 6.547E+03	 7.147E+03	 4.994E+03	 4.205E+03	 5.308E+03	 4.321E+01	 7.259E+02
  18.113	 0.000E+00	-3.075E-01	 4.407E+00	 2.569E+02	 3.450E+03	-1.956E+03	 8.719E+03	-2.883E+03	-3.681E+03	 5.799E+03	-1.840E+03	-2.453E+03	-3.261E+03	-9.908E+02	 7.737E+03	 4.999E+03	 4.205E+03	-1.367E+03	 6.541E+03	 7.139E+03	 4.995E+03	 4.206E+03	 5.309E+03	 4.321E+01	 7.262E+02
  18.125	 0.000E+00	-3.038E-01	 4.406E+00	 2.568E+02	 3.448E+03	-1.983E+03	 8.715E+03	-2.900E+03	-3.704E+03	 5.794E+03	-1.852E+03	-2.468E+03	-3.281E+03	-9.978E+02	 7.729E+03	 4.995E+03	 4.203E+03	-1.377E+03	 6.534E+03	 7.132E+03	 4.995E+03	 4.205E+03	 5.308E+03	 4.321E+01	 7.265E+02
  18.137	 0.000E+00	-2.998E-01	 4.404E+00	 2.566E+02	 3.446E+03	-2.010E+03	 8.712E+03	-2.919E+03	-3.729E+03	 5.789E+03	-1.865E+03	-2.484E+03	-3.302E+03	-1.006E+03	 7.720E+03	 4.991E+03	 4.200E+03	-1.387E+03	 6.528E+03	 7.124E+03	 4.995E+03	 4.205E+03	 5.308E+03	 4.322E+01	 7.268E+02
  18.150	 0.000E+00	-2.956E-01	 4.403E+00	 2.565E+02	 3.444E+03	-2.039E+03	 8.709E+03	-2.939E+03	-3.755E+03	 5.783E+03	-1.879E+03	-2.501E+03	-3.325E+03	-1.014E+03	 7.711E+03	 4.987E+03	 4.197E+03	-1.398E+03	 6.521E+03	 7.116E+03	 4.995E+03	 4.204E+03	 5.306E+03	 4.322E+01	 7.271E+02
  18.163	 0.000E+00	-2.910E-01	 4.402E+00	 2.564E+02	 3.442E+03	-2.069E+03	 8.706E+03	-2.960E+03	-3.782E+03	 5.777E+03	-1.893E+03	-2.519E+03	-3.349E+03	-1.024E+03	 7.701E+03	 4.983E+03	 4.194E+03	-1.410E+03	 6.513E+03	 7.108E+03	 4.995E+03	 4.202E+03	 5.304E+03	 4.322E+01	 7.274E+02
  18.175	 0.000E+00	-2.862E-01	 4.401E+00	 2.563E+02	 3.440E+03	-2.101E+03	 8.703E+03	-2.982E+03	-3.810E+03	 5.771E+03	-1.909E+03	-2.538E+03	-3.374E+03	-1.033E+03	 7.691E+03	 4.979E+03	 4.191E+03	-1.422E+03	 6.506E+03	 7.100E+03	 4.996E+03	 4.201E+03	 5.302E+03	 4.322E+01	 7.277E+02
  18.188	 0.000E+00	-2.812E-01	 4.400E+00	 2.562E+02	 3.438E+03	-2.133E+03	 8.699E+03	-3.006E+03	-3.839E+03	 5.764E+03	-1.926E+03	-2.558E+03	-3.400E+03	-1.044E+03	 7.681E+03	 4.974E+03	 4.188E+03	-1.436E+03	 6.498E+03	 7.091E+03	 4.996E+03	 4.199E+03	 5.300E+03	 4.322E+01	 7.281E+02
  18.200	 0.000E+00	-2.759E-01	 4.398E+00	 2.561E+02	 3.435E+03	-2.167E+03	 8.696E+03	-3.030E+03	-3.870E+03	 5.758E+03	-1.943E+03	-2.579E+03	-3.428E+03	-1.055E+03	 7.671E+03	 4.969E+03	 4.184E+03	-1.450E+03	 6.490E+03	 7.082E+03	 4.996E+03	 4.196E+03	 5.296E+03	 4.322E+01	 7.284E+02
  18.213	 0.000E+00	-2.704E-01	 4.397E+00	 2.560E+02	 3.433E+03	-2.202E+03	 8.693E+03	-3.055E+03	-3.901E+03	 5.751E+03	-1.961E+03	-2.600E+03	-3.456E+03	-1.067E+03	 7.661E+03	 4.964E+03	 4.181E+03	-1.465E+03	 6.482E+03	 7.073E+03	 4.996E+03	 4.194E+03	 5.293E+03	 4.322E+01	 7.288E+02
  18.225	 0.000E+00	-2.646E-01	 4.396E+00	 2.558E+02	 3.430E+03	-2.238E+03	 8.690E+03	-3.081E+03	-3.933E+03	 5.744E+03	-1.980E+03	-2.623E+03	-3.485E+03	-1.079E+03	 7.650E+03	 4.959E+03	 4.177E+03	-1.480E+03	 6.474E+03	 7.063E+03	 4.996E+03	 4.191E+03	 5.290E+03	 4.322E+01	 7.291E+02
  18.238	 0.000E+00	-2.588E-01	 4.394E+00	 2.557E+02	 3.428E+03	-2.274E+03	 8.686E+03	-3.108E+03	-3.966E+03	 5.737E+03	-1.999E+03	-2.646E+03	-3.514E+03	-1.092E+03	 7.639E+03	 4.954E+03	 4.173E+03	-1.496E+03	 6.465E+03	 7.053E+03	 4.996E+03	 4.188E+03	 5.286E+03	 4.322E+01	 7.295E+02
  18.250	 0.000E+00	-2.527E-01	 4.393E+00	 2.556E+02	 3.425E+03	-2.311E+03	 8.683E+03	-3.135E+03	-4.000E+03	 5.729E+03	-2.019E+03	-2.670E+03	-3.545E+03	-1.105E+03	 7.628E+03	 4.949E+03	 4.169E+03	-1.512E+03	 6.457E+03	 7.044E+03	 4.996E+03	 4.185E+03	 5.282E+03	 4.322E+01	 7.299E+02
  18.262	 0.000E+00	-2.466E-01	 4.392E+00	 2.555E+02	 3.422E+03	-2.349E+03	 8.680E+03	-3.163E+03	-4.034E+03	 5.722E+03	-2.039E+03	-2.694E+03	-3.575E+03	-1.119E+03	 7.617E+03	 4.943E+03	 4.165E+03	-1.529E+03	 6.448E+03	 7.033E+03	 4.996E+03	 4.182E+03	 5.278E+03	 4.322E+01	 7.303E+02
  18.275	 0.000E+00	-2.403E-01	 4.390E+00	 2.554E+02	 3.419E+03	-2.387E+03	 8.676E+03	-3.191E+03	-4.069E+03	 5.714E+03	-2.060E+03	-2.718E+03	-3.607E+03	-1.132E+03	 7.605E+03	 4.938E+03	 4.161E+03	-1.546E+03	 6.439E+03	 7.023E+03	 4.996E+03	 4.179E+03	 5.274E+03	 4.322E+01	 7.307E+02
  18.288	 0.000E+00	-2.340E-01	 4.389E+00	 2.553E+02	 3.416E+03	-2.425E+03	 8.673E+03	-3.219E+03	-4.103E+03	 5.706E+03	-2.081E+03	-2.743E+03	-3.638E+03	-1.146E+03	 7.594E+03	 4.932E+03	 4.157E+03	-1.563E+03	 6.430E+03	 7.013E+03	 4.996E+03	 4.176E+03	 5.270E+03	 4.322E+01	 7.311E+02
  18.300	 0.000E+00	-2.276E-01	 4.387E+00	 2.552E+02	 3.414E+03	-2.463E+03	 8.670E+03	-3.247E+03	-4.138E+03	 5.698E+03	-2.102E+03	-2.768E+03	-3.669E+03	-1.160E+03	 7.582E+03	 4.926E+03	 4.153E+03	-1.580E+03	 6.421E+03	 7.003E+03	 4.996E+03	 4.173E+03	 5.266E+03	 4.322E+01	 7.315E+02
  18.312	 0.000E+00	-2.212E-01	 4.385E+00	 2.551E+02	 3.410E+03	-2.501E+03	 8.666E+03	-3.276E+03	-4.172E+03	 5.691E+03	-2.123E+03	-2.792E+03	-3.700E+03	-1.174E+03	 7.571E+03	 4.920E+03	 4.149E+03	-1.598E+03	 6.411E+03	 6.992E+03	 4.996E+03	 4.170E+03	 5.262E+03	 4.322E+01	 7.319E+02
  18.325	 0.000E+00	-2.148E-01	 4.384E+00	 2.550E+02	 3.407E+03	-2.539E+03	 8.662E+03	-3.304E+03	-4.206E+03	 5.683E+03	-2.143E+03	-2.817E+03	-3.731E+03	-1.188E+03	 7.559E+03	 4.914E+03	 4.145E+03	-1.615E+03	 6.402E+03	 6.982E+03	 4.996E+03	 4.167E+03	 5.259E+03	 4.323E+01	 7.324E+02
  18.338	 0.000E+00	-2.084E-01	 4.382E+00	 2.548E+02	 3.404E+03	-2.576E+03	 8.659E+03	-3.331E+03	-4.240E+03	 5.675E+03	-2.164E+03	-2.841E+03	-3.762E+03	-1.202E+03	 7.548E+03	 4.909E+03	 4.140E+03	-1.632E+03	 6.393E+03	 6.972E+03	 4.995E+03	 4.165E+03	 5.256E+03	 4.323E+01	 7.328E+02
  18.350	 0.000E+00	-2.021E-01	 4.380E+00	 2.547E+02	 3.401E+03	-2.612E+03	 8.655E+03	-3.358E+03	-4.273E+03	 5.667E+03	-2.184E+03	-2.865E+03	-3.792E+03	-1.216E+03	 7.536E+03	 4.903E+03	 4.136E+03	-1.649E+03	 6.384E+03	 6.962E+03	 4.995E+03	 4.163E+03	 5.253E+03	 4.323E+01	 7.332E+02
  18.363	 0.000E+00	-1.959E-01	 4.378E+00	 2.546E+02	 3.398E+03	-2.647E+03	 8.651E+03	-3.385E+03	-4.305E+03	 5.659E+03	-2.204E+03	-2.888E+03	-3.821E+03	-1.229E+03	 7.525E+03	 4.897E+03	 4.132E+03	-1.666E+03	 6.375E+03	 6.951E+03	 4.995E+03	 4.161E+03	 5.250E+03	 4.323E+01	 7.337E+02
  18.375	 0.000E+00	-1.899E-01	 4.377E+00	 2.545E+02	 3.395E+03	-2.682E+03	 8.647E+03	-3.411E+03	-4.336E+03	 5.651E+03	-2.224E+03	-2.911E+03	-3.850E+03	-1.242E+03	 7.514E+03	 4.891E+03	 4.127E+03	-1.682E+03	 6.366E+03	 6.941E+03	 4.995E+03	 4.160E+03	 5.248E+03	 4.323E+01	 7.342E+02
  18.387	 0.000E+00	-1.840E-01	 4.375E+00	 2.544E+02	 3.392E+03	-2.715E+03	 8.643E+03	-3.436E+03	-4.366E+03	 5.644E+03	-2.242E+03	-2.933E+03	-3.877E+03	-1.255E+03	 7.503E+03	 4.885E+03	 4.123E+03	-1.697E+03	 6.357E+03	 6.932E+03	 4.995E+03	 4.158E+03	 5.247E+03	 4.323E+01	 7.346E+02
  18.400	 0.000E+00	-1.783E-01	 4.373E+00	 2.542E+02	 3.389E+03	-2.746E+03	 8.639E+03	-3.459E+03	-4.394E+03	 5.636E+03	-2.260E+03	-2.954E+03	-3.903E+03	-1.267E+03	 7.493E+03	 4.880E+03	 4.119E+03	-1.712E+03	 6.348E+03	 6.922E+03	 4.994E+03	 4.158E+03	 5.245E+03	 4.323E+01	 7.351E+02
  18.413	 0.000E+00	-1.728E-01	 4.371E+00	 2.541E+02	 3.386E+03	-2.776E+03	 8.636E+03	-3.482E+03	-4.421E+03	 5.629E+03	-2.277E+03	-2.974E+03	-3.928E+03	-1.279E+03	 7.483E+03	 4.874E+03	 4.115E+03	-1.727E+03	 6.340E+03	 6.913E+03	 4.994E+03	 4.157E+03	 5.245E+03	 4.323E+01	 7.356E+02
  18.425	 0.000E+00	-1.676E-01	 4.369E+00	 2.540E+02	 3.383E+03	-2.804E+03	 8.631E+03	-3.503E+03	-4.447E+03	 5.622E+03	-2.294E+03	-2.992E+03	-3.951E+03	-1.290E+03	 7.473E+03	 4.869E+03	 4.111E+03	-1.740E+03	 6.332E+03	 6.904E+03	 4.994E+03	 4.157E+03	 5.244E+03	 4.323E+01	 7.361E+02
  18.438	 0.000E+00	-1.627E-01	 4.367E+00	 2.539E+02	 3.380E+03	-2.831E+03	 8.628E+03	-3.523E+03	-4.470E+03	 5.615E+03	-2.309E+03	-3.010E+03	-3.973E+03	-1.300E+03	 7.463E+03	 4.864E+03	 4.107E+03	-1.753E+03	 6.324E+03	 6.895E+03	 4.994E+03	 4.158E+03	 5.244E+03	 4.323E+01	 7.366E+02
  18.450	 0.000E+00	-1.581E-01	 4.365E+00	 2.537E+02	 3.377E+03	-2.855E+03	 8.623E+03	-3.541E+03	-4.492E+03	 5.609E+03	-2.323E+03	-3.026E+03	-3.993E+03	-1.310E+03	 7.454E+03	 4.859E+03	 4.103E+03	-1.765E+03	 6.317E+03	 6.887E+03	 4.993E+03	 4.158E+03	 5.245E+03	 4.323E+01	 7.371E+02
  18.463	 0.000E+00	-1.538E-01	 4.363E+00	 2.536E+02	 3.374E+03	-2.877E+03	 8.619E+03	-3.558E+03	-4.512E+03	 5.602E+03	-2.335E+03	-3.041E+03	-4.011E+03	-1.319E+03	 7.445E+03	 4.854E+03	 4.099E+03	-1.775E+03	 6.310E+03	 6.879E+03	 4.993E+03	 4.159E+03	 5.246E+03	 4.324E+01	 7.376E+02
  18.475	 0.000E+00	-1.499E-01	 4.360E+00	 2.535E+02	 3.372E+03	-2.897E+03	 8.615E+03	-3.572E+03	-4.529E+03	 5.597E+03	-2.347E+03	-3.054E+03	-4.027E+03	-1.327E+03	 7.437E+03	 4.850E+03	 4.096E+03	-1.785E+03	 6.303E+03	 6.872E+03	 4.993E+03	 4.160E+03	 5.247E+03	 4.324E+01	 7.381E+02
[...]
  99.150	 0.000E+00	-6.671E-01	 4.510E+00	 2.513E+02	 3.626E+03	 1.056E+03	 8.852E+03	-8.594E+02	-9.800E+02	 6.300E+03	-5.248E+02	-7.847E+02	-9.194E+02	-2.356E+02	 8.509E+03	 5.356E+03	 4.459E+03	-3.569E+02	 7.137E+03	 7.819E+03	 5.000E+03	 4.178E+03	 5.294E+03	 4.309E+01	 7.604E+02
  99.163	 0.000E+00	-6.748E-01	 4.512E+00	 2.513E+02	 3.630E+03	 1.113E+03	 8.856E+03	-8.205E+02	-9.290E+02	 6.310E+03	-4.988E+02	-7.522E+02	-8.749E+02	-2.201E+02	 8.525E+03	 5.363E+03	 4.464E+03	-3.366E+02	 7.149E+03	 7.833E+03	 5.000E+03	 4.177E+03	 5.294E+03	 4.309E+01	 7.603E+02
  99.175	 0.000E+00	-6.824E-01	 4.515E+00	 2.514E+02	 3.633E+03	 1.170E+03	 8.859E+03	-7.817E+02	-8.780E+02	 6.320E+03	-4.729E+02	-7.198E+02	-8.303E+02	-2.047E+02	 8.541E+03	 5.370E+03	 4.469E+03	-3.163E+02	 7.161E+03	 7.847E+03	 5.000E+03	 4.177E+03	 5.294E+03	 4.309E+01	 7.603E+02
  99.188	 0.000E+00	-6.901E-01	 4.517E+00	 2.514E+02	 3.637E+03	 1.226E+03	 8.863E+03	-7.429E+02	-8.271E+02	 6.330E+03	-4.469E+02	-6.874E+02	-7.858E+02	-1.892E+02	 8.557E+03	 5.377E+03	 4.474E+03	-2.960E+02	 7.173E+03	 7.861E+03	 5.000E+03	 4.177E+03	 5.294E+03	 4.309E+01	 7.603E+02
  99.200	 0.000E+00	-6.977E-01	 4.519E+00	 2.515E+02	 3.641E+03	 1.283E+03	 8.867E+03	-7.041E+02	-7.762E+02	 6.340E+03	-4.210E+02	-6.551E+02	-7.413E+02	-1.738E+02	 8.572E+03	 5.384E+03	 4.479E+03	-2.757E+02	 7.185E+03	 7.874E+03	 5.000E+03	 4.177E+03	 5.294E+03	 4.309E+01	 7.602E+02
  99.213	 0.000E+00	-7.054E-01	 4.521E+00	 2.515E+02	 3.644E+03	 1.340E+03	 8.871E+03	-6.655E+02	-7.256E+02	 6.350E+03	-3.952E+02	-6.228E+02	-6.970E+02	-1.584E+02	 8.588E+03	 5.391E+03	 4.485E+03	-2.555E+02	 7.197E+03	 7.888E+03	 5.000E+03	 4.177E+03	 5.294E+03	 4.309E+01	 7.602E+02
  99.225	 0.000E+00	-7.130E-01	 4.524E+00	 2.516E+02	 3.648E+03	 1.397E+03	 8.875E+03	-6.269E+02	-6.749E+02	 6.360E+03	-3.694E+02	-5.906E+02	-6.527E+02	-1.430E+02	 8.604E+03	 5.399E+03	 4.490E+03	-2.354E+02	 7.209E+03	 7.902E+03	 5.000E+03	 4.177E+03	 5.294E+03	 4.309E+01	 7.601E+02
  99.238	 0.000E+00	-7.206E-01	 4.526E+00	 2.516E+02	 3.651E+03	 1.453E+03	 8.879E+03	-5.885E+02	-6.244E+02	 6.370E+03	-3.437E+02	-5.585E+02	-6.086E+02	-1.277E+02	 8.620E+03	 5.406E+03	 4.495E+03	-2.152E+02	 7.221E+03	 7.916E+03	 5.000E+03	 4.177E+03	 5.294E+03	 4.309E+01	 7.601E+02
  99.250	 0.000E+00	-7.282E-01	 4.528E+00	 2.517E+02	 3.655E+03	 1.509E+03	 8.883E+03	-5.500E+02	-5.740E+02	 6.380E+03	-3.180E+02	-5.264E+02	-5.646E+02	-1.124E+02	 8.636E+03	 5.413E+03	 4.500E+03	-1.952E+02	 7.233E+03	 7.930E+03	 5.000E+03	 4.177E+03	 5.294E+03	 4.309E+01	 7.600E+02
  99.263	 0.000E+00	-7.358E-01	 4.530E+00	 2.518E+02	 3.658E+03	 1.565E+03	 8.887E+03	-5.118E+02	-5.238E+02	 6.390E+03	-2.924E+02	-4.945E+02	-5.207E+02	-9.714E+01	 8.652E+03	 5.420E+03	 4.505E+03	-1.752E+02	 7.246E+03	 7.944E+03	 5.000E+03	 4.177E+03	 5.293E+03	 4.309E+01	 7.600E+02
  99.275	 0.000E+00	-7.433E-01	 4.533E+00	 2.518E+02	 3.662E+03	 1.621E+03	 8.891E+03	-4.736E+02	-4.737E+02	 6.400E+03	-2.669E+02	-4.626E+02	-4.769E+02	-8.195E+01	 8.667E+03	 5.427E+03	 4.510E+03	-1.552E+02	 7.258E+03	 7.958E+03	 5.000E+03	 4.177E+03	 5.293E+03	 4.309E+01	 7.599E+02
  99.288	 0.000E+00	-7.509E-01	 4.535E+00	 2.519E+02	 3.666E+03	 1.677E+03	 8.896E+03	-4.356E+02	-4.239E+02	 6.411E+03	-2.415E+02	-4.309E+02	-4.333E+02	-6.678E+01	 8.683E+03	 5.435E+03	 4.515E+03	-1.353E+02	 7.270E+03	 7.971E+03	 5.000E+03	 4.177E+03	 5.293E+03	 4.309E+01	 7.599E+02
  99.300	 0.000E+00	-7.584E-01	 4.538E+00	 2.520E+02	 3.669E+03	 1.733E+03	 8.900E+03	-3.977E+02	-3.741E+02	 6.421E+03	-2.161E+02	-3.993E+02	-3.898E+02	-5.170E+01	 8.699E+03	 5.442E+03	 4.521E+03	-1.155E+02	 7.282E+03	 7.985E+03	 5.000E+03	 4.177E+03	 5.293E+03	 4.309E+01	 7.599E+02
  99.312	 0.000E+00	-7.659E-01	 4.540E+00	 2.520E+02	 3.673E+03	 1.788E+03	 8.904E+03	-3.600E+02	-3.246E+02	 6.431E+03	-1.909E+02	-3.678E+02	-3.466E+02	-3.663E+01	 8.715E+03	 5.449E+03	 4.526E+03	-9.576E+01	 7.294E+03	 7.999E+03	 5.000E+03	 4.177E+03	 5.293E+03	 4.309E+01	 7.598E+02
  99.325	 0.000E+00	-7.734E-01	 4.542E+00	 2.521E+02	 3.677E+03	 1.844E+03	 8.908E+03	-3.224E+02	-2.752E+02	 6.441E+03	-1.657E+02	-3.364E+02	-3.034E+02	-2.167E+01	 8.731E+03	 5.456E+03	 4.531E+03	-7.611E+01	 7.306E+03	 8.013E+03	 5.000E+03	 4.177E+03	 5.293E+03	 4.309E+01	 7.598E+02
  99.338	 0.000E+00	-7.808E-01	 4.545E+00	 2.522E+02	 3.680E+03	 1.899E+03	 8.913E+03	-2.850E+02	-2.262E+02	 6.451E+03	-1.407E+02	-3.052E+02	-2.605E+02	-6.732E+00	 8.747E+03	 5.464E+03	 4.536E+03	-5.652E+01	 7.318E+03	 8.027E+03	 5.000E+03	 4.177E+03	 5.293E+03	 4.309E+01	 7.597E+02
  99.350	 0.000E+00	-7.882E-01	 4.547E+00	 2.523E+02	 3.684E+03	 1.953E+03	 8.917E+03	-2.477E+02	-1.773E+02	 6.461E+03	-1.158E+02	-2.741E+02	-2.178E+02	 8.101E+00	 8.763E+03	 5.471E+03	 4.541E+03	-3.705E+01	 7.330E+03	 8.041E+03	 5.000E+03	 4.177E+03	 5.293E+03	 4.309E+01	 7.597E+02
  99.363	 0.000E+00	-7.956E-01	 4.550E+00	 2.524E+02	 3.687E+03	 2.008E+03	 8.922E+03	-2.107E+02	-1.287E+02	 6.471E+03	-9.103E+01	-2.432E+02	-1.753E+02	 2.290E+01	 8.778E+03	 5.478E+03	 4.546E+03	-1.765E+01	 7.342E+03	 8.055E+03	 5.000E+03	 4.176E+03	 5.293E+03	 4.309E+01	 7.597E+02
  99.375	 0.000E+00	-8.030E-01	 4.552E+00	 2.524E+02	 3.691E+03	 2.062E+03	 8.926E+03	-1.738E+02	-8.026E+01	 6.481E+03	-6.637E+01	-2.124E+02	-1.330E+02	 3.758E+01	 8.794E+03	 5.485E+03	 4.552E+03	 1.630E+00	 7.354E+03	 8.068E+03	 5.000E+03	 4.176E+03	 5.293E+03	 4.309E+01	 7.596E+02
  99.388	 0.000E+00	-8.103E-01	 4.555E+00	 2.525E+02	 3.695E+03	 2.116E+03	 8.931E+03	-1.372E+02	-3.224E+01	 6.491E+03	-4.185E+01	-1.818E+02	-9.100E+01	 5.223E+01	 8.810E+03	 5.492E+03	 4.557E+03	 2.082E+01	 7.366E+03	 8.082E+03	 5.000E+03	 4.176E+03	 5.293E+03	 4.309E+01	 7.596E+02
  99.400	 0.000E+00	-8.175E-01	 4.557E+00	 2.526E+02	 3.698E+03	 2.170E+03	 8.935E+03	-1.007E+02	 1.566E+01	 6.501E+03	-1.747E+01	-1.514E+02	-4.914E+01	 6.675E+01	 8.826E+03	 5.500E+03	 4.562E+03	 3.989E+01	 7.378E+03	 8.096E+03	 5.000E+03	 4.176E+03	 5.292E+03	 4.309E+01	 7.595E+02
  99.413	 0.000E+00	-8.248E-01	 4.560E+00	 2.527E+02	 3.702E+03	 2.223E+03	 8.940E+03	-6.454E+01	 6.310E+01	 6.511E+03	 6.757E+00	-1.212E+02	-7.659E+00	 8.122E+01	 8.841E+03	 5.507E+03	 4.567E+03	 5.886E+01	 7.390E+03	 8.110E+03	 5.000E+03	 4.176E+03	 5.292E+03	 4.309E+01	 7.595E+02
  99.425	 0.000E+00	-8.320E-01	 4.562E+00	 2.528E+02	 3.706E+03	 2.276E+03	 8.945E+03	-2.850E+01	 1.104E+02	 6.521E+03	 3.085E+01	-9.110E+01	 3.369E+01	 9.557E+01	 8.857E+03	 5.514E+03	 4.572E+03	 7.769E+01	 7.402E+03	 8.123E+03	 5.000E+03	 4.176E+03	 5.292E+03	 4.309E+01	 7.595E+02
  99.438	 0.000E+00	-8.391E-01	 4.565E+00	 2.529E+02	 3.709E+03	 2.328E+03	 8.949E+03	 7.193E+00	 1.572E+02	 6.531E+03	 5.476E+01	-6.129E+01	 7.462E+01	 1.099E+02	 8.873E+03	 5.521E+03	 4.577E+03	 9.641E+01	 7.414E+03	 8.137E+03	 5.000E+03	 4.176E+03	 5.292E+03	 4.309E+01	 7.594E+02
  99.450	 0.000E+00	-8.462E-01	 4.567E+00	 2.530E+02	 3.713E+03	 2.381E+03	 8.954E+03	 4.274E+01	 2.039E+02	 6.541E+03	 7.852E+01	-3.163E+01	 1.154E+02	 1.240E+02	 8.888E+03	 5.528E+03	 4.583E+03	 1.150E+02	 7.426E+03	 8.151E+03	 5.000E+03	 4.176E+03	 5.292E+03	 4.309E+01	 7.594E+02
  99.463	 0.000E+00	-8.533E-01	 4.570E+00	 2.531E+02	 3.717E+03	 2.433E+03	 8.959E+03	 7.793E+01	 2.501E+02	 6.551E+03	 1.021E+02	-2.241E+00	 1.558E+02	 1.381E+02	 8.904E+03	 5.535E+03	 4.588E+03	 1.335E+02	 7.438E+03	 8.164E+03	 5.000E+03	 4.176E+03	 5.292E+03	 4.309E+01	 7.593E+02
  99.475	 0.000E+00	-8.603E-01	 4.572E+00	 2.532E+02	 3.720E+03	 2.484E+03	 8.964E+03	 1.130E+02	 2.961E+02	 6.561E+03	 1.255E+02	 2.699E+01	 1.960E+02	 1.521E+02	 8.919E+03	 5.542E+03	 4.593E+03	 1.518E+02	 7.450E+03	 8.178E+03	 5.000E+03	 4.176E+03	 5.292E+03	 4.309E+01	 7.593E+02
  99.488	 0.000E+00	-8.673E-01	 4.575E+00	 2.533E+02	 3.724E+03	 2.535E+03	 8.969E+03	 1.476E+02	 3.415E+02	 6.571E+03	 1.487E+02	 5.592E+01	 2.357E+02	 1.659E+02	 8.935E+03	 5.550E+03	 4.598E+03	 1.700E+02	 7.462E+03	 8.191E+03	 5.000E+03	 4.176E+03	 5.292E+03	 4.309E+01	 7.593E+02
  99.500	 0.000E+00	-8.742E-01	 4.578E+00	 2.534E+02	 3.727E+03	 2.586E+03	 8.973E+03	 1.821E+02	 3.868E+02	 6.581E+03	 1.718E+02	 8.469E+01	 2.752E+02	 1.797E+02	 8.950E+03	 5.557E+03	 4.603E+03	 1.880E+02	 7.473E+03	 8.205E+03	 5.000E+03	 4.176E+03	 5.292E+03	 4.309E+01	 7.592E+02
  99.513	 0.000E+00	-8.810E-01	 4.580E+00	 2.535E+02	 3.731E+03	 2.637E+03	 8.978E+03	 2.162E+02	 4.315E+02	 6.590E+03	 1.946E+02	 1.131E+02	 3.143E+02	 1.933E+02	 8.965E+03	 5.564E+03	 4.608E+03	 2.059E+02	 7.485E+03	 8.218E+03	 5.000E+03	 4.176E+03	 5.292E+03	 4.309E+01	 7.592E+02
  99.525	 0.000E+00	-8.878E-01	 4.583E+00	 2.536E+02	 3.735E+03	 2.687E+03	 8.983E+03	 2.500E+02	 4.759E+02	 6.600E+03	 2.173E+02	 1.414E+02	 3.532E+02	 2.068E+02	 8.981E+03	 5.571E+03	 4.613E+03	 2.236E+02	 7.497E+03	 8.232E+03	 5.000E+03	 4.176E+03	 5.292E+03	 4.309E+01	 7.592E+02
  99.538	 0.000E+00	-8.946E-01	 4.585E+00	 2.538E+02	 3.738E+03	 2.736E+03	 8.988E+03	 2.835E+02	 5.198E+02	 6.610E+03	 2.397E+02	 1.694E+02	 3.916E+02	 2.203E+02	 8.996E+03	 5.578E+03	 4.618E+03	 2.412E+02	 7.508E+03	 8.245E+03	 4.999E+03	 4.176E+03	 5.292E+03	 4.309E+01	 7.591E+02
  99.550	 0.000E+00	-9.013E-01	 4.588E+00	 2.539E+02	 3.742E+03	 2.785E+03	 8.993E+03	 3.167E+02	 5.635E+02	 6.619E+03	 2.619E+02	 1.971E+02	 4.297E+02	 2.335E+02	 9.011E+03	 5.585E+03	 4.623E+03	 2.586E+02	 7.520E+03	 8.258E+03	 4.999E+03	 4.176E+03	 5.292E+03	 4.309E+01	 7.591E+02
  99.562	 0.000E+00	-9.079E-01	 4.591E+00	 2.540E+02	 3.745E+03	 2.834E+03	 8.998E+03	 3.496E+02	 6.065E+02	 6.629E+03	 2.839E+02	 2.245E+02	 4.673E+02	 2.467E+02	 9.026E+03	 5.592E+03	 4.628E+03	 2.758E+02	 7.531E+03	 8.271E+03	 4.999E+03	 4.176E+03	 5.292E+03	 4.309E+01	 7.591E+02
  99.575	 0.000E+00	-9.145E-01	 4.593E+00	 2.541E+02	 3.749E+03	 2.882E+03	 9.003E+03	 3.822E+02	 6.493E+02	 6.638E+03	 3.057E+02	 2.517E+02	 5.048E+02	 2.597E+02	 9.041E+03	 5.598E+03	 4.633E+03	 2.929E+02	 7.543E+03	 8.284E+03	 4.999E+03	 4.176E+03	 5.292E+03	 4.309E+01	 7.590E+02
  99.588	 0.000E+00	-9.210E-01	 4.596E+00	 2.542E+02	 3.752E+03	 2.929E+03	 9.008E+03	 4.143E+02	 6.915E+02	 6.648E+03	 3.273E+02	 2.786E+02	 5.416E+02	 2.726E+02	 9.056E+03	 5.605E+03	 4.638E+03	 3.098E+02	 7.554E+03	 8.297E+03	 4.999E+03	 4.176E+03	 5.292E+03	 4.309E+01	 7.590E+02
  99.600	 0.000E+00	-9.274E-01	 4.599E+00	 2.544E+02	 3.756E+03	 2.977E+03	 9.013E+03	 4.462E+02	 7.334E+02	 6.657E+03	 3.486E+02	 3.052E+02	 5.782E+02	 2.853E+02	 9.070E+03	 5.612E+03	 4.643E+03	 3.265E+02	 7.565E+03	 8.310E+03	 4.999E+03	 4.176E+03	 5.292E+03	 4.309E+01	 7.590E+02
  99.613	 0.000E+00	-9.338E-01	 4.601E+00	 2.545E+02	 3.760E+03	 3.023E+03	 9.018E+03	 4.777E+02	 7.746E+02	 6.667E+03	 3.697E+02	 3.314E+02	 6.143E+02	 2.979E+02	 9.085E+03	 5.619E+03	 4.648E+03	 3.430E+02	 7.577E+03	 8.323E+03	 4.999E+03	 4.176E+03	 5.292E+03	 4.309E+01	 7.589E+02
  99.625	 0.000E+00	-9.401E-01	 4.604E+00	 2.546E+02	 3.763E+03	 3.069E+03	 9.023E+03	 5.088E+02	 8.156E+02	 6.676E+03	 3.906E+02	 3.575E+02	 6.501E+02	 3.104E+02	 9.100E+03	 5.626E+03	 4.653E+03	 3.593E+02	 7.588E+03	 8.336E+03	 4.999E+03	 4.176E+03	 5.292E+03	 4.309E+01	 7.589E+02
  99.638	 0.000E+00	-9.464E-01	 4.607E+00	 2.548E+02	 3.766E+03	 3.115E+03	 9.029E+03	 5.395E+02	 8.558E+02	 6.685E+03	 4.112E+02	 3.831E+02	 6.853E+02	 3.227E+02	 9.114E+03	 5.632E+03	 4.658E+03	 3.755E+02	 7.599E+03	 8.349E+03	 4.999E+03	 4.176E+03	 5.292E+03	 4.309E+01	 7.589E+02
  99.650	 0.000E+00	-9.525E-01	 4.609E+00	 2.549E+02	 3.770E+03	 3.160E+03	 9.034E+03	 5.700E+02	 8.958E+02	 6.694E+03	 4.316E+02	 4.085E+02	 7.202E+02	 3.349E+02	 9.128E+03	 5.639E+03	 4.663E+03	 3.914E+02	 7.610E+03	 8.361E+03	 4.999E+03	 4.176E+03	 5.292E+03	 4.309E+01	 7.589E+02
  99.663	 0.000E+00	-9.586E-01	 4.612E+00	 2.550E+02	 3.773E+03	 3.204E+03	 9.039E+03	 5.999E+02	 9.350E+02	 6.703E+03	 4.516E+02	 4.335E+02	 7.545E+02	 3.469E+02	 9.143E+03	 5.646E+03	 4.667E+03	 4.071E+02	 7.621E+03	 8.374E+03	 4.999E+03	 4.176E+03	 5.292E+03	 4.309E+01	 7.588E+02
  99.675	 0.000E+00	-9.646E-01	 4.615E+00	 2.552E+02	 3.777E+03	 3.248E+03	 9.044E+03	 6.296E+02	 9.740E+02	 6.713E+03	 4.715E+02	 4.583E+02	 7.885E+02	 3.588E+02	 9.157E+03	 5.652E+03	 4.672E+03	 4.227E+02	 7.631E+03	 8.386E+03	 4.999E+03	 4.176E+03	 5.292E+03	 4.309E+01	 7.588E+02
  99.688	 0.000E+00	-9.706E-01	 4.617E+00	 2.553E+02	 3.780E+03	 3.291E+03	 9.049E+03	 6.587E+02	 1.012E+03	 6.722E+03	 4.910E+02	 4.826E+02	 8.219E+02	 3.705E+02	 9.171E+03	 5.659E+03	 4.677E+03	 4.380E+02	 7.642E+03	 8.398E+03	 4.999E+03	 4.176E+03	 5.292E+03	 4.309E+01	 7.588E+02
  99.700	 0.000E+00	-9.765E-01	 4.620E+00	 2.555E+02	 3.784E+03	 3.334E+03	 9.054E+03	 6.875E+02	 1.050E+03	 6.730E+03	 5.104E+02	 5.067E+02	 8.550E+02	 3.820E+02	 9.185E+03	 5.665E+03	 4.682E+03	 4.531E+02	 7.653E+03	 8.410E+03	 4.999E+03	 4.176E+03	 5.292E+03	 4.309E+01	 7.588E+02
  99.713	 0.000E+00	-9.823E-01	 4.623E+00	 2.556E+02	 3.787E+03	 3.376E+03	 9.060E+03	 7.158E+02	 1.087E+03	 6.739E+03	 5.293E+02	 5.303E+02	 8.875E+02	 3.934E+02	 9.199E+03	 5.672E+03	 4.686E+03	 4.680E+02	 7.663E+03	 8.423E+03	 4.999E+03	 4.176E+03	 5.292E+03	 4.309E+01	 7.587E+02
  99.725	 0.000E+00	-9.880E-01	 4.625E+00	 2.558E+02	 3.790E+03	 3.418E+03	 9.065E+03	 7.438E+02	 1.124E+03	 6.748E+03	 5.481E+02	 5.537E+02	 9.196E+02	 4.046E+02	 9.212E+03	 5.678E+03	 4.691E+03	 4.827E+02	 7.674E+03	 8.435E+03	 4.999E+03	 4.176E+03	 5.292E+03	 4.309E+01	 7.587E+02
  99.738	 0.000E+00	-9.936E-01	 4.628E+00	 2.559E+02	 3.794E+03	 3.459E+03	 9.070E+03	 7.713E+02	 1.160E+03	 6.757E+03	 5.665E+02	 5.766E+02	 9.510E+02	 4.157E+02	 9.226E+03	 5.684E+03	 4.696E+03	 4.972E+02	 7.684E+03	 8.446E+03	 4.999E+03	 4.176E+03	 5.292E+03	 4.309E+01	 7.587E+02
  99.750	 0.000E+00	-9.992E-01	 4.630E+00	 2.561E+02	 3.797E+03	 3.499E+03	 9.075E+03	 7.984E+02	 1.195E+03	 6.765E+03	 5.847E+02	 5.992E+02	 9.821E+02	 4.265E+02	 9.239E+03	 5.691E+03	 4.700E+03	 5.114E+02	 7.694E+03	 8.458E+03	 4.999E+03	 4.176E+03	 5.292E+03	 4.309E+01	 7.587E+02
  99.763	 0.000E+00	-1.005E+00	 4.633E+00	 2.562E+02	 3.800E+03	 3.538E+03	 9.080E+03	 8.249E+02	 1.230E+03	 6.774E+03	 6.025E+02	 6.214E+02	 1.013E+03	 4.372E+02	 9.253E+03	 5.697E+03	 4.705E+03	 5.254E+02	 7.705E+03	 8.470E+03	 4.999E+03	 4.177E+03	 5.292E+03	 4.309E+01	 7.586E+02
  99.775	 0.000E+00	-1.010E+00	 4.636E+00	 2.564E+02	 3.803E+03	 3.577E+03	 9.086E+03	 8.511E+02	 1.265E+03	 6.782E+03	 6.201E+02	 6.433E+02	 1.043E+03	 4.477E+02	 9.266E+03	 5.703E+03	 4.709E+03	 5.391E+02	 7.715E+03	 8.481E+03	 4.999E+03	 4.177E+03	 5.292E+03	 4.309E+01	 7.586E+02
  99.788	 0.000E+00	-1.015E+00	 4.638E+00	 2.565E+02	 3.807E+03	 3.616E+03	 9.091E+03	 8.768E+02	 1.298E+03	 6.790E+03	 6.373E+02	 6.647E+02	 1.072E+03	 4.581E+02	 9.279E+03	 5.709E+03	 4.714E+03	 5.527E+02	 7.725E+03	 8.493E+03	 4.999E+03	 4.177E+03	 5.292E+03	 4.309E+01	 7.586E+02
  99.800	 0.000E+00	-1.020E+00	 4.641E+00	 2.567E+02	 3.810E+03	 3.653E+03	 9.096E+03	 9.020E+02	 1.331E+03	 6.799E+03	 6.542E+02	 6.858E+02	 1.101E+03	 4.682E+02	 9.292E+03	 5.715E+03	 4.718E+03	 5.659E+02	 7.734E+03	 8.504E+03	 4.999E+03	 4.177E+03	 5.292E+03	 4.309E+01	 7.586E+02
  99.812	 0.000E+00	-1.026E+00	 4.644E+00	 2.568E+02	 3.813E+03	 3.690E+03	 9.101E+03	 9.267E+02	 1.364E+03	 6.807E+03	 6.708E+02	 7.064E+02	 1.129E+03	 4.782E+02	 9.305E+03	 5.721E+03	 4.723E+03	 5.790E+02	 7.744E+03	 8.515E+03	 4.999E+03	 4.177E+03	 5.292E+03	 4.309E+01	 7.586E+02
  99.825	 0.000E+00	-1.031E+00	 4.646E+00	 2.570E+02	 3.816E+03	 3.726E+03	 9.107E+03	 9.510E+02	 1.396E+03	 6.815E+03	 6.871E+02	 7.267E+02	 1.157E+03	 4.879E+02	 9.317E+03	 5.727E+03	 4.727E+03	 5.917E+02	 7.754E+03	 8.526E+03	 4.999E+03	 4.177E+03	 5.292E+03	 4.309E+01	 7.586E+02
  99.838	 0.000E+00	-1.036E+00	 4.649E+00	 2.572E+02	 3.819E+03	 3.762E+03	 9.112E+03	 9.747E+02	 1.427E+03	 6.823E+03	 7.031E+02	 7.465E+02	 1.184E+03	 4.975E+02	 9.330E+03	 5.733E+03	 4.731E+03	 6.043E+02	 7.763E+03	 8.537E+03	 4.999E+03	 4.177E+03	 5.292E+03	 4.309E+01	 7.585E+02
  99.850	 0.000E+00	-1.040E+00	 4.652E+00	 2.573E+02	 3.822E+03	 3.797E+03	 9.117E+03	 9.981E+02	 1.457E+03	 6.831E+03	 7.187E+02	 7.660E+02	 1.211E+03	 5.069E+02	 9.342E+03	 5.739E+03	 4.736E+03	 6.165E+02	 7.773E+03	 8.548E+03	 4.999E+03	 4.177E+03	 5.292E+03	 4.309E+01	 7.585E+02
  99.863	 0.000E+00	-1.045E+00	 4.654E+00	 2.575E+02	 3.825E+03	 3.831E+03	 9.122E+03	 1.021E+03	 1.487E+03	 6.839E+03	 7.340E+02	 7.850E+02	 1.237E+03	 5.161E+02	 9.354E+03	 5.744E+03	 4.740E+03	 6.285E+02	 7.782E+03	 8.559E+03	 4.999E+03	 4.177E+03	 5.292E+03	 4.309E+01	 7.585E+02
  99.875	 0.000E+00	-1.050E+00	 4.657E+00	 2.577E+02	 3.829E+03	 3.864E+03	 9.128E+03	 1.043E+03	 1.516E+03	 6.846E+03	 7.490E+02	 8.036E+02	 1.263E+03	 5.250E+02	 9.366E+03	 5.750E+03	 4.744E+03	 6.403E+02	 7.791E+03	 8.569E+03	 4.999E+03	 4.177E+03	 5.292E+03	 4.309E+01	 7.585E+02
  99.888	 0.000E+00	-1.054E+00	 4.659E+00	 2.578E+02	 3.832E+03	 3.896E+03	 9.133E+03	 1.065E+03	 1.545E+03	 6.854E+03	 7.635E+02	 8.217E+02	 1.288E+03	 5.338E+02	 9.378E+03	 5.756E+03	 4.748E+03	 6.517E+02	 7.800E+03	 8.579E+03	 4.999E+03	 4.177E+03	 5.292E+03	 4.309E+01	 7.585E+02
  99.900	 0.000E+00	-1.059E+00	 4.662E+00	 2.580E+02	 3.834E+03	 3.928E+03	 9.138E+03	 1.086E+03	 1.573E+03	 6.861E+03	 7.778E+02	 8.395E+02	 1.312E+03	 5.424E+02	 9.389E+03	 5.761E+03	 4.752E+03	 6.629E+02	 7.809E+03	 8.590E+03	 4.999E+03	 4.177E+03	 5.292E+03	 4.309E+01	 7.585E+02
  99.913	 0.000E+00	-1.063E+00	 4.664E+00	 2.582E+02	 3.837E+03	 3.959E+03	 9.143E+03	 1.107E+03	 1.600E+03	 6.869E+03	 7.917E+02	 8.567E+02	 1.336E+03	 5.508E+02	 9.401E+03	 5.766E+03	 4.756E+03	 6.738E+02	 7.818E+03	 8.600E+03	 4.999E+03	 4.177E+03	 5.292E+03	 4.309E+01	 7.584E+02
  99.925	 0.000E+00	-1.067E+00	 4.667E+00	 2.583E+02	 3.840E+03	 3.990E+03	 9.149E+03	 1.127E+03	 1.626E+03	 6.876E+03	 8.053E+02	 8.736E+02	 1.359E+03	 5.589E+02	 9.412E+03	 5.772E+03	 4.760E+03	 6.845E+02	 7.827E+03	 8.610E+03	 4.999E+03	 4.177E+03	 5.292E+03	 4.309E+01	 7.584E+02
  99.938	 0.000E+00	-1.072E+00	 4.670E+00	 2.585E+02	 3.843E+03	 4.019E+03	 9.154E+03	 1.146E+03	 1.652E+03	 6.883E+03	 8.185E+02	 8.899E+02	 1.381E+03	 5.668E+02	 9.423E+03	 5.777E+03	 4.764E+03	 6.949E+02	 7.835E+03	 8.619E+03	 4.999E+03	 4.177E+03	 5.292E+03	 4.309E+01	 7.584E+02
  99.950	 0.000E+00	-1.076E+00	 4.672E+00	 2.587E+02	 3.846E+03	 4.048E+03	 9.159E+03	 1.166E+03	 1.677E+03	 6.890E+03	 8.313E+02	 9.059E+02	 1.403E+03	 5.745E+02	 9.434E+03	 5.782E+03	 4.768E+03	 7.049E+02	 7.844E+03	 8.629E+03	 4.999E+03	 4.177E+03	 5.292E+03	 4.309E+01	 7.584E+02
  99.963	 0.000E+00	-1.079E+00	 4.675E+00	 2.589E+02	 3.849E+03	 4.076E+03	 9.164E+03	 1.184E+03	 1.701E+03	 6.897E+03	 8.437E+02	 9.213E+02	 1.424E+03	 5.821E+02	 9.445E+03	 5.787E+03	 4.772E+03	 7.147E+02	 7.852E+03	 8.638E+03	 4.999E+03	 4.177E+03	 5.292E+03	 4.309E+01	 7.584E+02
  99.975	 0.000E+00	-1.083E+00	 4.677E+00	 2.590E+02	 3.852E+03	 4.103E+03	 9.170E+03	 1.202E+03	 1.725E+03	 6.904E+03	 8.559E+02	 9.364E+02	 1.445E+03	 5.893E+02	 9.456E+03	 5.793E+03	 4.775E+03	 7.242E+02	 7.860E+03	 8.648E+03	 4.999E+03	 4.177E+03	 5.292E+03	 4.309E+01	 7.584E+02
  99.988	 0.000E+00	-1.087E+00	 4.680E+00	 2.592E+02	 3.854E+03	 4.129E+03	 9.175E+03	 1.219E+03	 1.748E+03	 6.910E+03	 8.676E+02	 9.509E+02	 1.465E+03	 5.964E+02	 9.466E+03	 5.797E+03	 4.779E+03	 7.334E+02	 7.868E+03	 8.657E+03	 4.999E+03	 4.178E+03	 5.292E+03	 4.309E+01	 7.584E+02
 100.000	 0.000E+00	-1.091E+00	 4.682E+00	 2.594E+02	 3.857E+03	 4.155E+03	 9.180E+03	 1.236E+03	 1.770E+03	 6.917E+03	 8.789E+02	 9.650E+02	 1.484E+03	 6.032E+02	 9.476E+03	 5.802E+03	 4.783E+03	 7.424E+02	 7.876E+03	 8.666E+03	 4.999E+03	 4.178E+03	 5.293E+03	 4.309E+01	 7.584E+02
 100.013	 0.000E+00	-1.094E+00	 4.684E+00	 2.596E+02	 3.860E+03	 4.179E+03	 9.185E+03	 1.252E+03	 1.791E+03	 6.923E+03	 8.898E+02	 9.785E+02	 1.503E+03	 6.099E+02	 9.486E+03	 5.807E+03	 4.786E+03	 7.510E+02	 7.883E+03	 8.675E+03	 4.999E+03	 4.178E+03	 5.293E+03	 4.309E+01	 7.584E+02
